/*---------------------------------------------------------------------------*\
| =========                 |                                                 |
| \\      /  F ield         | foam-extend: Open Source CFD                    |
|  \\    /   O peration     | Version:     4.0                                |
|   \\  /    A nd           | Web:         http://www.foam-extend.org         |
|    \\/     M anipulation  | For copyright notice see file Copyright         |
\*---------------------------------------------------------------------------*/
Build    : 4.0-268bb07d15d8
Exec     : dbnsFoam
Date     : Apr 26 2022
Time     : 12:21:14
Host     : node358.pi.sjtu.edu.cn
PID      : 1638350
CtrlDict : "/dssg/home/acct-medgm/medgm/06-DLR-buffet/Workspace/test_cases/03-dbns-shocktube/00-test-600-roe-firstOrder/system/controlDict"
Case     : /dssg/home/acct-medgm/medgm/06-DLR-buffet/Workspace/test_cases/03-dbns-shocktube/00-test-600-roe-firstOrder
nProcs   : 1
SigFpe   : Enabling floating point exception trapping (FOAM_SIGFPE).

// * * * * * * * * * * * * * * * * * * * * * * * * * * * * * * * * * * * * * //
Create time

Create mesh for time = 0

Reading thermophysical properties

Selecting thermodynamics package hPsiThermo<pureMixture<constTransport<specieThermo<hConstThermo<perfectGas>>>>>
Reading field rho

Reading field U

Selecting numericFlux roeFluxfirstOrderLimiter

Starting time loop

Courant Number mean: 0 max: 0 velocity magnitude: 0

 Time = 1e-05
diagonal:  Solving for rho, Initial residual = 0, Final residual = 0, No Iterations 0
diagonal:  Solving for rhoUx, Initial residual = 0, Final residual = 0, No Iterations 0
diagonal:  Solving for rhoUy, Initial residual = 0, Final residual = 0, No Iterations 0
diagonal:  Solving for rhoE, Initial residual = 0, Final residual = 0, No Iterations 0
diagonal:  Solving for rho, Initial residual = 0, Final residual = 0, No Iterations 0
diagonal:  Solving for rhoUx, Initial residual = 0, Final residual = 0, No Iterations 0
diagonal:  Solving for rhoUy, Initial residual = 0, Final residual = 0, No Iterations 0
diagonal:  Solving for rhoE, Initial residual = 0, Final residual = 0, No Iterations 0
diagonal:  Solving for rho, Initial residual = 0, Final residual = 0, No Iterations 0
diagonal:  Solving for rhoUx, Initial residual = 0, Final residual = 0, No Iterations 0
diagonal:  Solving for rhoUy, Initial residual = 0, Final residual = 0, No Iterations 0
diagonal:  Solving for rhoE, Initial residual = 0, Final residual = 0, No Iterations 0
diagonal:  Solving for rho, Initial residual = 0, Final residual = 0, No Iterations 0
diagonal:  Solving for rhoUx, Initial residual = 0, Final residual = 0, No Iterations 0
diagonal:  Solving for rhoUy, Initial residual = 0, Final residual = 0, No Iterations 0
diagonal:  Solving for rhoE, Initial residual = 0, Final residual = 0, No Iterations 0
    ExecutionTime = 0.01 s

Courant Number mean: 0.00394663 max: 0.752616 velocity magnitude: 125.436

 Time = 2e-05
diagonal:  Solving for rho, Initial residual = 0, Final residual = 0, No Iterations 0
diagonal:  Solving for rhoUx, Initial residual = 0, Final residual = 0, No Iterations 0
diagonal:  Solving for rhoUy, Initial residual = 0, Final residual = 0, No Iterations 0
diagonal:  Solving for rhoE, Initial residual = 0, Final residual = 0, No Iterations 0
diagonal:  Solving for rho, Initial residual = 0, Final residual = 0, No Iterations 0
diagonal:  Solving for rhoUx, Initial residual = 0, Final residual = 0, No Iterations 0
diagonal:  Solving for rhoUy, Initial residual = 0, Final residual = 0, No Iterations 0
diagonal:  Solving for rhoE, Initial residual = 0, Final residual = 0, No Iterations 0
diagonal:  Solving for rho, Initial residual = 0, Final residual = 0, No Iterations 0
diagonal:  Solving for rhoUx, Initial residual = 0, Final residual = 0, No Iterations 0
diagonal:  Solving for rhoUy, Initial residual = 0, Final residual = 0, No Iterations 0
diagonal:  Solving for rhoE, Initial residual = 0, Final residual = 0, No Iterations 0
diagonal:  Solving for rho, Initial residual = 0, Final residual = 0, No Iterations 0
diagonal:  Solving for rhoUx, Initial residual = 0, Final residual = 0, No Iterations 0
diagonal:  Solving for rhoUy, Initial residual = 0, Final residual = 0, No Iterations 0
diagonal:  Solving for rhoE, Initial residual = 0, Final residual = 0, No Iterations 0
    ExecutionTime = 0.02 s

Courant Number mean: 0.00920647 max: 0.786931 velocity magnitude: 131.155

 Time = 3e-05
diagonal:  Solving for rho, Initial residual = 0, Final residual = 0, No Iterations 0
diagonal:  Solving for rhoUx, Initial residual = 0, Final residual = 0, No Iterations 0
diagonal:  Solving for rhoUy, Initial residual = 0, Final residual = 0, No Iterations 0
diagonal:  Solving for rhoE, Initial residual = 0, Final residual = 0, No Iterations 0
diagonal:  Solving for rho, Initial residual = 0, Final residual = 0, No Iterations 0
diagonal:  Solving for rhoUx, Initial residual = 0, Final residual = 0, No Iterations 0
diagonal:  Solving for rhoUy, Initial residual = 0, Final residual = 0, No Iterations 0
diagonal:  Solving for rhoE, Initial residual = 0, Final residual = 0, No Iterations 0
diagonal:  Solving for rho, Initial residual = 0, Final residual = 0, No Iterations 0
diagonal:  Solving for rhoUx, Initial residual = 0, Final residual = 0, No Iterations 0
diagonal:  Solving for rhoUy, Initial residual = 0, Final residual = 0, No Iterations 0
diagonal:  Solving for rhoE, Initial residual = 0, Final residual = 0, No Iterations 0
diagonal:  Solving for rho, Initial residual = 0, Final residual = 0, No Iterations 0
diagonal:  Solving for rhoUx, Initial residual = 0, Final residual = 0, No Iterations 0
diagonal:  Solving for rhoUy, Initial residual = 0, Final residual = 0, No Iterations 0
diagonal:  Solving for rhoE, Initial residual = 0, Final residual = 0, No Iterations 0
    ExecutionTime = 0.04 s

Courant Number mean: 0.0144624 max: 0.794775 velocity magnitude: 132.463

 Time = 4e-05
diagonal:  Solving for rho, Initial residual = 0, Final residual = 0, No Iterations 0
diagonal:  Solving for rhoUx, Initial residual = 0, Final residual = 0, No Iterations 0
diagonal:  Solving for rhoUy, Initial residual = 0, Final residual = 0, No Iterations 0
diagonal:  Solving for rhoE, Initial residual = 0, Final residual = 0, No Iterations 0
diagonal:  Solving for rho, Initial residual = 0, Final residual = 0, No Iterations 0
diagonal:  Solving for rhoUx, Initial residual = 0, Final residual = 0, No Iterations 0
diagonal:  Solving for rhoUy, Initial residual = 0, Final residual = 0, No Iterations 0
diagonal:  Solving for rhoE, Initial residual = 0, Final residual = 0, No Iterations 0
diagonal:  Solving for rho, Initial residual = 0, Final residual = 0, No Iterations 0
diagonal:  Solving for rhoUx, Initial residual = 0, Final residual = 0, No Iterations 0
diagonal:  Solving for rhoUy, Initial residual = 0, Final residual = 0, No Iterations 0
diagonal:  Solving for rhoE, Initial residual = 0, Final residual = 0, No Iterations 0
diagonal:  Solving for rho, Initial residual = 0, Final residual = 0, No Iterations 0
diagonal:  Solving for rhoUx, Initial residual = 0, Final residual = 0, No Iterations 0
diagonal:  Solving for rhoUy, Initial residual = 0, Final residual = 0, No Iterations 0
diagonal:  Solving for rhoE, Initial residual = 0, Final residual = 0, No Iterations 0
    ExecutionTime = 0.05 s

Courant Number mean: 0.0197166 max: 0.791589 velocity magnitude: 131.932

 Time = 5e-05
diagonal:  Solving for rho, Initial residual = 0, Final residual = 0, No Iterations 0
diagonal:  Solving for rhoUx, Initial residual = 0, Final residual = 0, No Iterations 0
diagonal:  Solving for rhoUy, Initial residual = 0, Final residual = 0, No Iterations 0
diagonal:  Solving for rhoE, Initial residual = 0, Final residual = 0, No Iterations 0
diagonal:  Solving for rho, Initial residual = 0, Final residual = 0, No Iterations 0
diagonal:  Solving for rhoUx, Initial residual = 0, Final residual = 0, No Iterations 0
diagonal:  Solving for rhoUy, Initial residual = 0, Final residual = 0, No Iterations 0
diagonal:  Solving for rhoE, Initial residual = 0, Final residual = 0, No Iterations 0
diagonal:  Solving for rho, Initial residual = 0, Final residual = 0, No Iterations 0
diagonal:  Solving for rhoUx, Initial residual = 0, Final residual = 0, No Iterations 0
diagonal:  Solving for rhoUy, Initial residual = 0, Final residual = 0, No Iterations 0
diagonal:  Solving for rhoE, Initial residual = 0, Final residual = 0, No Iterations 0
diagonal:  Solving for rho, Initial residual = 0, Final residual = 0, No Iterations 0
diagonal:  Solving for rhoUx, Initial residual = 0, Final residual = 0, No Iterations 0
diagonal:  Solving for rhoUy, Initial residual = 0, Final residual = 0, No Iterations 0
diagonal:  Solving for rhoE, Initial residual = 0, Final residual = 0, No Iterations 0
    ExecutionTime = 0.05 s

Courant Number mean: 0.0249711 max: 0.790376 velocity magnitude: 131.729

 Time = 6e-05
diagonal:  Solving for rho, Initial residual = 0, Final residual = 0, No Iterations 0
diagonal:  Solving for rhoUx, Initial residual = 0, Final residual = 0, No Iterations 0
diagonal:  Solving for rhoUy, Initial residual = 0, Final residual = 0, No Iterations 0
diagonal:  Solving for rhoE, Initial residual = 0, Final residual = 0, No Iterations 0
diagonal:  Solving for rho, Initial residual = 0, Final residual = 0, No Iterations 0
diagonal:  Solving for rhoUx, Initial residual = 0, Final residual = 0, No Iterations 0
diagonal:  Solving for rhoUy, Initial residual = 0, Final residual = 0, No Iterations 0
diagonal:  Solving for rhoE, Initial residual = 0, Final residual = 0, No Iterations 0
diagonal:  Solving for rho, Initial residual = 0, Final residual = 0, No Iterations 0
diagonal:  Solving for rhoUx, Initial residual = 0, Final residual = 0, No Iterations 0
diagonal:  Solving for rhoUy, Initial residual = 0, Final residual = 0, No Iterations 0
diagonal:  Solving for rhoE, Initial residual = 0, Final residual = 0, No Iterations 0
diagonal:  Solving for rho, Initial residual = 0, Final residual = 0, No Iterations 0
diagonal:  Solving for rhoUx, Initial residual = 0, Final residual = 0, No Iterations 0
diagonal:  Solving for rhoUy, Initial residual = 0, Final residual = 0, No Iterations 0
diagonal:  Solving for rhoE, Initial residual = 0, Final residual = 0, No Iterations 0
    ExecutionTime = 0.06 s

Courant Number mean: 0.0302251 max: 0.788838 velocity magnitude: 131.473

 Time = 7e-05
diagonal:  Solving for rho, Initial residual = 0, Final residual = 0, No Iterations 0
diagonal:  Solving for rhoUx, Initial residual = 0, Final residual = 0, No Iterations 0
diagonal:  Solving for rhoUy, Initial residual = 0, Final residual = 0, No Iterations 0
diagonal:  Solving for rhoE, Initial residual = 0, Final residual = 0, No Iterations 0
diagonal:  Solving for rho, Initial residual = 0, Final residual = 0, No Iterations 0
diagonal:  Solving for rhoUx, Initial residual = 0, Final residual = 0, No Iterations 0
diagonal:  Solving for rhoUy, Initial residual = 0, Final residual = 0, No Iterations 0
diagonal:  Solving for rhoE, Initial residual = 0, Final residual = 0, No Iterations 0
diagonal:  Solving for rho, Initial residual = 0, Final residual = 0, No Iterations 0
diagonal:  Solving for rhoUx, Initial residual = 0, Final residual = 0, No Iterations 0
diagonal:  Solving for rhoUy, Initial residual = 0, Final residual = 0, No Iterations 0
diagonal:  Solving for rhoE, Initial residual = 0, Final residual = 0, No Iterations 0
diagonal:  Solving for rho, Initial residual = 0, Final residual = 0, No Iterations 0
diagonal:  Solving for rhoUx, Initial residual = 0, Final residual = 0, No Iterations 0
diagonal:  Solving for rhoUy, Initial residual = 0, Final residual = 0, No Iterations 0
diagonal:  Solving for rhoE, Initial residual = 0, Final residual = 0, No Iterations 0
    ExecutionTime = 0.07 s

Courant Number mean: 0.0354788 max: 0.787763 velocity magnitude: 131.294

 Time = 8e-05
diagonal:  Solving for rho, Initial residual = 0, Final residual = 0, No Iterations 0
diagonal:  Solving for rhoUx, Initial residual = 0, Final residual = 0, No Iterations 0
diagonal:  Solving for rhoUy, Initial residual = 0, Final residual = 0, No Iterations 0
diagonal:  Solving for rhoE, Initial residual = 0, Final residual = 0, No Iterations 0
diagonal:  Solving for rho, Initial residual = 0, Final residual = 0, No Iterations 0
diagonal:  Solving for rhoUx, Initial residual = 0, Final residual = 0, No Iterations 0
diagonal:  Solving for rhoUy, Initial residual = 0, Final residual = 0, No Iterations 0
diagonal:  Solving for rhoE, Initial residual = 0, Final residual = 0, No Iterations 0
diagonal:  Solving for rho, Initial residual = 0, Final residual = 0, No Iterations 0
diagonal:  Solving for rhoUx, Initial residual = 0, Final residual = 0, No Iterations 0
diagonal:  Solving for rhoUy, Initial residual = 0, Final residual = 0, No Iterations 0
diagonal:  Solving for rhoE, Initial residual = 0, Final residual = 0, No Iterations 0
diagonal:  Solving for rho, Initial residual = 0, Final residual = 0, No Iterations 0
diagonal:  Solving for rhoUx, Initial residual = 0, Final residual = 0, No Iterations 0
diagonal:  Solving for rhoUy, Initial residual = 0, Final residual = 0, No Iterations 0
diagonal:  Solving for rhoE, Initial residual = 0, Final residual = 0, No Iterations 0
    ExecutionTime = 0.08 s

Courant Number mean: 0.0407324 max: 0.787181 velocity magnitude: 131.197

 Time = 9e-05
diagonal:  Solving for rho, Initial residual = 0, Final residual = 0, No Iterations 0
diagonal:  Solving for rhoUx, Initial residual = 0, Final residual = 0, No Iterations 0
diagonal:  Solving for rhoUy, Initial residual = 0, Final residual = 0, No Iterations 0
diagonal:  Solving for rhoE, Initial residual = 0, Final residual = 0, No Iterations 0
diagonal:  Solving for rho, Initial residual = 0, Final residual = 0, No Iterations 0
diagonal:  Solving for rhoUx, Initial residual = 0, Final residual = 0, No Iterations 0
diagonal:  Solving for rhoUy, Initial residual = 0, Final residual = 0, No Iterations 0
diagonal:  Solving for rhoE, Initial residual = 0, Final residual = 0, No Iterations 0
diagonal:  Solving for rho, Initial residual = 0, Final residual = 0, No Iterations 0
diagonal:  Solving for rhoUx, Initial residual = 0, Final residual = 0, No Iterations 0
diagonal:  Solving for rhoUy, Initial residual = 0, Final residual = 0, No Iterations 0
diagonal:  Solving for rhoE, Initial residual = 0, Final residual = 0, No Iterations 0
diagonal:  Solving for rho, Initial residual = 0, Final residual = 0, No Iterations 0
diagonal:  Solving for rhoUx, Initial residual = 0, Final residual = 0, No Iterations 0
diagonal:  Solving for rhoUy, Initial residual = 0, Final residual = 0, No Iterations 0
diagonal:  Solving for rhoE, Initial residual = 0, Final residual = 0, No Iterations 0
    ExecutionTime = 0.08 s

Courant Number mean: 0.0459858 max: 0.786633 velocity magnitude: 131.105

 Time = 0.0001
diagonal:  Solving for rho, Initial residual = 0, Final residual = 0, No Iterations 0
diagonal:  Solving for rhoUx, Initial residual = 0, Final residual = 0, No Iterations 0
diagonal:  Solving for rhoUy, Initial residual = 0, Final residual = 0, No Iterations 0
diagonal:  Solving for rhoE, Initial residual = 0, Final residual = 0, No Iterations 0
diagonal:  Solving for rho, Initial residual = 0, Final residual = 0, No Iterations 0
diagonal:  Solving for rhoUx, Initial residual = 0, Final residual = 0, No Iterations 0
diagonal:  Solving for rhoUy, Initial residual = 0, Final residual = 0, No Iterations 0
diagonal:  Solving for rhoE, Initial residual = 0, Final residual = 0, No Iterations 0
diagonal:  Solving for rho, Initial residual = 0, Final residual = 0, No Iterations 0
diagonal:  Solving for rhoUx, Initial residual = 0, Final residual = 0, No Iterations 0
diagonal:  Solving for rhoUy, Initial residual = 0, Final residual = 0, No Iterations 0
diagonal:  Solving for rhoE, Initial residual = 0, Final residual = 0, No Iterations 0
diagonal:  Solving for rho, Initial residual = 0, Final residual = 0, No Iterations 0
diagonal:  Solving for rhoUx, Initial residual = 0, Final residual = 0, No Iterations 0
diagonal:  Solving for rhoUy, Initial residual = 0, Final residual = 0, No Iterations 0
diagonal:  Solving for rhoE, Initial residual = 0, Final residual = 0, No Iterations 0
    ExecutionTime = 0.09 s

Courant Number mean: 0.0512397 max: 0.7861 velocity magnitude: 131.017

 Time = 0.00011
diagonal:  Solving for rho, Initial residual = 0, Final residual = 0, No Iterations 0
diagonal:  Solving for rhoUx, Initial residual = 0, Final residual = 0, No Iterations 0
diagonal:  Solving for rhoUy, Initial residual = 0, Final residual = 0, No Iterations 0
diagonal:  Solving for rhoE, Initial residual = 0, Final residual = 0, No Iterations 0
diagonal:  Solving for rho, Initial residual = 0, Final residual = 0, No Iterations 0
diagonal:  Solving for rhoUx, Initial residual = 0, Final residual = 0, No Iterations 0
diagonal:  Solving for rhoUy, Initial residual = 0, Final residual = 0, No Iterations 0
diagonal:  Solving for rhoE, Initial residual = 0, Final residual = 0, No Iterations 0
diagonal:  Solving for rho, Initial residual = 0, Final residual = 0, No Iterations 0
diagonal:  Solving for rhoUx, Initial residual = 0, Final residual = 0, No Iterations 0
diagonal:  Solving for rhoUy, Initial residual = 0, Final residual = 0, No Iterations 0
diagonal:  Solving for rhoE, Initial residual = 0, Final residual = 0, No Iterations 0
diagonal:  Solving for rho, Initial residual = 0, Final residual = 0, No Iterations 0
diagonal:  Solving for rhoUx, Initial residual = 0, Final residual = 0, No Iterations 0
diagonal:  Solving for rhoUy, Initial residual = 0, Final residual = 0, No Iterations 0
diagonal:  Solving for rhoE, Initial residual = 0, Final residual = 0, No Iterations 0
    ExecutionTime = 0.1 s

Courant Number mean: 0.0564955 max: 0.792923 velocity magnitude: 132.154

 Time = 0.00012
diagonal:  Solving for rho, Initial residual = 0, Final residual = 0, No Iterations 0
diagonal:  Solving for rhoUx, Initial residual = 0, Final residual = 0, No Iterations 0
diagonal:  Solving for rhoUy, Initial residual = 0, Final residual = 0, No Iterations 0
diagonal:  Solving for rhoE, Initial residual = 0, Final residual = 0, No Iterations 0
diagonal:  Solving for rho, Initial residual = 0, Final residual = 0, No Iterations 0
diagonal:  Solving for rhoUx, Initial residual = 0, Final residual = 0, No Iterations 0
diagonal:  Solving for rhoUy, Initial residual = 0, Final residual = 0, No Iterations 0
diagonal:  Solving for rhoE, Initial residual = 0, Final residual = 0, No Iterations 0
diagonal:  Solving for rho, Initial residual = 0, Final residual = 0, No Iterations 0
diagonal:  Solving for rhoUx, Initial residual = 0, Final residual = 0, No Iterations 0
diagonal:  Solving for rhoUy, Initial residual = 0, Final residual = 0, No Iterations 0
diagonal:  Solving for rhoE, Initial residual = 0, Final residual = 0, No Iterations 0
diagonal:  Solving for rho, Initial residual = 0, Final residual = 0, No Iterations 0
diagonal:  Solving for rhoUx, Initial residual = 0, Final residual = 0, No Iterations 0
diagonal:  Solving for rhoUy, Initial residual = 0, Final residual = 0, No Iterations 0
diagonal:  Solving for rhoE, Initial residual = 0, Final residual = 0, No Iterations 0
    ExecutionTime = 0.1 s

Courant Number mean: 0.061757 max: 0.793081 velocity magnitude: 132.18

 Time = 0.00013
diagonal:  Solving for rho, Initial residual = 0, Final residual = 0, No Iterations 0
diagonal:  Solving for rhoUx, Initial residual = 0, Final residual = 0, No Iterations 0
diagonal:  Solving for rhoUy, Initial residual = 0, Final residual = 0, No Iterations 0
diagonal:  Solving for rhoE, Initial residual = 0, Final residual = 0, No Iterations 0
diagonal:  Solving for rho, Initial residual = 0, Final residual = 0, No Iterations 0
diagonal:  Solving for rhoUx, Initial residual = 0, Final residual = 0, No Iterations 0
diagonal:  Solving for rhoUy, Initial residual = 0, Final residual = 0, No Iterations 0
diagonal:  Solving for rhoE, Initial residual = 0, Final residual = 0, No Iterations 0
diagonal:  Solving for rho, Initial residual = 0, Final residual = 0, No Iterations 0
diagonal:  Solving for rhoUx, Initial residual = 0, Final residual = 0, No Iterations 0
diagonal:  Solving for rhoUy, Initial residual = 0, Final residual = 0, No Iterations 0
diagonal:  Solving for rhoE, Initial residual = 0, Final residual = 0, No Iterations 0
diagonal:  Solving for rho, Initial residual = 0, Final residual = 0, No Iterations 0
diagonal:  Solving for rhoUx, Initial residual = 0, Final residual = 0, No Iterations 0
diagonal:  Solving for rhoUy, Initial residual = 0, Final residual = 0, No Iterations 0
diagonal:  Solving for rhoE, Initial residual = 0, Final residual = 0, No Iterations 0
    ExecutionTime = 0.11 s

Courant Number mean: 0.067019 max: 0.875328 velocity magnitude: 145.888

 Time = 0.00014
diagonal:  Solving for rho, Initial residual = 0, Final residual = 0, No Iterations 0
diagonal:  Solving for rhoUx, Initial residual = 0, Final residual = 0, No Iterations 0
diagonal:  Solving for rhoUy, Initial residual = 0, Final residual = 0, No Iterations 0
diagonal:  Solving for rhoE, Initial residual = 0, Final residual = 0, No Iterations 0
diagonal:  Solving for rho, Initial residual = 0, Final residual = 0, No Iterations 0
diagonal:  Solving for rhoUx, Initial residual = 0, Final residual = 0, No Iterations 0
diagonal:  Solving for rhoUy, Initial residual = 0, Final residual = 0, No Iterations 0
diagonal:  Solving for rhoE, Initial residual = 0, Final residual = 0, No Iterations 0
diagonal:  Solving for rho, Initial residual = 0, Final residual = 0, No Iterations 0
diagonal:  Solving for rhoUx, Initial residual = 0, Final residual = 0, No Iterations 0
diagonal:  Solving for rhoUy, Initial residual = 0, Final residual = 0, No Iterations 0
diagonal:  Solving for rhoE, Initial residual = 0, Final residual = 0, No Iterations 0
diagonal:  Solving for rho, Initial residual = 0, Final residual = 0, No Iterations 0
diagonal:  Solving for rhoUx, Initial residual = 0, Final residual = 0, No Iterations 0
diagonal:  Solving for rhoUy, Initial residual = 0, Final residual = 0, No Iterations 0
diagonal:  Solving for rhoE, Initial residual = 0, Final residual = 0, No Iterations 0
    ExecutionTime = 0.12 s

Courant Number mean: 0.0722936 max: 0.982501 velocity magnitude: 163.75

 Time = 0.00015
diagonal:  Solving for rho, Initial residual = 0, Final residual = 0, No Iterations 0
diagonal:  Solving for rhoUx, Initial residual = 0, Final residual = 0, No Iterations 0
diagonal:  Solving for rhoUy, Initial residual = 0, Final residual = 0, No Iterations 0
diagonal:  Solving for rhoE, Initial residual = 0, Final residual = 0, No Iterations 0
diagonal:  Solving for rho, Initial residual = 0, Final residual = 0, No Iterations 0
diagonal:  Solving for rhoUx, Initial residual = 0, Final residual = 0, No Iterations 0
diagonal:  Solving for rhoUy, Initial residual = 0, Final residual = 0, No Iterations 0
diagonal:  Solving for rhoE, Initial residual = 0, Final residual = 0, No Iterations 0
diagonal:  Solving for rho, Initial residual = 0, Final residual = 0, No Iterations 0
diagonal:  Solving for rhoUx, Initial residual = 0, Final residual = 0, No Iterations 0
diagonal:  Solving for rhoUy, Initial residual = 0, Final residual = 0, No Iterations 0
diagonal:  Solving for rhoE, Initial residual = 0, Final residual = 0, No Iterations 0
diagonal:  Solving for rho, Initial residual = 0, Final residual = 0, No Iterations 0
diagonal:  Solving for rhoUx, Initial residual = 0, Final residual = 0, No Iterations 0
diagonal:  Solving for rhoUy, Initial residual = 0, Final residual = 0, No Iterations 0
diagonal:  Solving for rhoE, Initial residual = 0, Final residual = 0, No Iterations 0
    ExecutionTime = 0.13 s

Courant Number mean: 0.0776076 max: 1.04306 velocity magnitude: 173.844

 Time = 0.00016
diagonal:  Solving for rho, Initial residual = 0, Final residual = 0, No Iterations 0
diagonal:  Solving for rhoUx, Initial residual = 0, Final residual = 0, No Iterations 0
diagonal:  Solving for rhoUy, Initial residual = 0, Final residual = 0, No Iterations 0
diagonal:  Solving for rhoE, Initial residual = 0, Final residual = 0, No Iterations 0
diagonal:  Solving for rho, Initial residual = 0, Final residual = 0, No Iterations 0
diagonal:  Solving for rhoUx, Initial residual = 0, Final residual = 0, No Iterations 0
diagonal:  Solving for rhoUy, Initial residual = 0, Final residual = 0, No Iterations 0
diagonal:  Solving for rhoE, Initial residual = 0, Final residual = 0, No Iterations 0
diagonal:  Solving for rho, Initial residual = 0, Final residual = 0, No Iterations 0
diagonal:  Solving for rhoUx, Initial residual = 0, Final residual = 0, No Iterations 0
diagonal:  Solving for rhoUy, Initial residual = 0, Final residual = 0, No Iterations 0
diagonal:  Solving for rhoE, Initial residual = 0, Final residual = 0, No Iterations 0
diagonal:  Solving for rho, Initial residual = 0, Final residual = 0, No Iterations 0
diagonal:  Solving for rhoUx, Initial residual = 0, Final residual = 0, No Iterations 0
diagonal:  Solving for rhoUy, Initial residual = 0, Final residual = 0, No Iterations 0
diagonal:  Solving for rhoE, Initial residual = 0, Final residual = 0, No Iterations 0
bounding h, min: -30404.8 max: 347263 average: 273911
new min: 117622
    ExecutionTime = 0.14 s

Courant Number mean: 0.0829947 max: 1.07702 velocity magnitude: 179.504

 Time = 0.00017
diagonal:  Solving for rho, Initial residual = 0, Final residual = 0, No Iterations 0
diagonal:  Solving for rhoUx, Initial residual = 0, Final residual = 0, No Iterations 0
diagonal:  Solving for rhoUy, Initial residual = 0, Final residual = 0, No Iterations 0
diagonal:  Solving for rhoE, Initial residual = 0, Final residual = 0, No Iterations 0
diagonal:  Solving for rho, Initial residual = 0, Final residual = 0, No Iterations 0
diagonal:  Solving for rhoUx, Initial residual = 0, Final residual = 0, No Iterations 0
diagonal:  Solving for rhoUy, Initial residual = 0, Final residual = 0, No Iterations 0
diagonal:  Solving for rhoE, Initial residual = 0, Final residual = 0, No Iterations 0
diagonal:  Solving for rho, Initial residual = 0, Final residual = 0, No Iterations 0
diagonal:  Solving for rhoUx, Initial residual = 0, Final residual = 0, No Iterations 0
diagonal:  Solving for rhoUy, Initial residual = 0, Final residual = 0, No Iterations 0
diagonal:  Solving for rhoE, Initial residual = 0, Final residual = 0, No Iterations 0
diagonal:  Solving for rho, Initial residual = 0, Final residual = 0, No Iterations 0
diagonal:  Solving for rhoUx, Initial residual = 0, Final residual = 0, No Iterations 0
diagonal:  Solving for rhoUy, Initial residual = 0, Final residual = 0, No Iterations 0
diagonal:  Solving for rhoE, Initial residual = 0, Final residual = 0, No Iterations 0
bounding h, min: -784908 max: 355494 average: 271367
new min: 165192
bounding rho, min: -0.697727 max: 4.41646 average: 2.57873
new min: 0.560001
    ExecutionTime = 0.15 s

Courant Number mean: 0.0866699 max: 0.982876 velocity magnitude: 163.813

 Time = 0.00018
diagonal:  Solving for rho, Initial residual = 0, Final residual = 0, No Iterations 0
diagonal:  Solving for rhoUx, Initial residual = 0, Final residual = 0, No Iterations 0
diagonal:  Solving for rhoUy, Initial residual = 0, Final residual = 0, No Iterations 0
diagonal:  Solving for rhoE, Initial residual = 0, Final residual = 0, No Iterations 0
bounding h, min: -9.7282e+06 max: 639326 average: 255938
new min: 234234
diagonal:  Solving for rho, Initial residual = 0, Final residual = 0, No Iterations 0
diagonal:  Solving for rhoUx, Initial residual = 0, Final residual = 0, No Iterations 0
diagonal:  Solving for rhoUy, Initial residual = 0, Final residual = 0, No Iterations 0
diagonal:  Solving for rhoE, Initial residual = 0, Final residual = 0, No Iterations 0
bounding h, min: -1.85605e+07 max: 1.99916e+06 average: 241696
new min: 1.007
bounding rho, min: -8.72478 max: 8.96397 average: 2.5868
new min: 1.28937
diagonal:  Solving for rho, Initial residual = 0, Final residual = 0, No Iterations 0
diagonal:  Solving for rhoUx, Initial residual = 0, Final residual = 0, No Iterations 0
diagonal:  Solving for rhoUy, Initial residual = 0, Final residual = 0, No Iterations 0
diagonal:  Solving for rhoE, Initial residual = 0, Final residual = 0, No Iterations 0
bounding h, min: -2.71598e+08 max: 2.07543e+06 average: -191109
new min: 1.007
bounding rho, min: -104.902 max: 67.1195 average: 2.5868
new min: 1.27165
bounding p, min: 4.74863 max: 3.21057e+07 average: 261794
new max: 5.59647e+06
diagonal:  Solving for rho, Initial residual = 0, Final residual = 0, No Iterations 0
diagonal:  Solving for rhoUx, Initial residual = 0, Final residual = 0, No Iterations 0
diagonal:  Solving for rhoUy, Initial residual = 0, Final residual = 0, No Iterations 0
diagonal:  Solving for rhoE, Initial residual = 0, Final residual = 0, No Iterations 0
bounding h, min: -6.93674e+10 max: 2.10729e+06 average: -1.16248e+08
new min: 1.007
bounding rho, min: -1529.32 max: 1996.06 average: 2.5868
new min: 0.744877
bounding p, min: 7.41927 max: 7.22654e+07 average: 363991
new max: 8.44164e+06
    ExecutionTime = 0.16 s

Courant Number mean: 0.184208 max: 32.0452 velocity magnitude: 5340.87

 Time = 0.00019
diagonal:  Solving for rho, Initial residual = 0, Final residual = 0, No Iterations 0
diagonal:  Solving for rhoUx, Initial residual = 0, Final residual = 0, No Iterations 0
diagonal:  Solving for rhoUy, Initial residual = 0, Final residual = 0, No Iterations 0
diagonal:  Solving for rhoE, Initial residual = 0, Final residual = 0, No Iterations 0
bounding h, min: -5.32302e+11 max: 2.35589e+06 average: -9.43453e+08
new min: 1.007
bounding rho, min: -21777.7 max: 18129.5 average: 7.77109
new min: 0.001
new max: 7779.64
bounding p, min: 0.000287699 max: 1.788e+09 average: 4.91926e+06
new min: 13.8862
new max: 1e+07
diagonal:  Solving for rho, Initial residual = 0, Final residual = 0, No Iterations 0
diagonal:  Solving for rhoUx, Initial residual = 0, Final residual = 0, No Iterations 0
diagonal:  Solving for rhoUy, Initial residual = 0, Final residual = 0, No Iterations 0
diagonal:  Solving for rhoE, Initial residual = 0, Final residual = 0, No Iterations 0
bounding h, min: -3.46368e+12 max: 3.67017e+08 average: -5.88986e+09
new min: 1.007
new max: 1.007e+07
bounding rho, min: -4.88382e+06 max: 2.60955e+06 average: 7.77147
new min: 0.847518
new max: 10000
bounding p, min: 58.9378 max: 2.5552e+10 average: 1.07184e+08
new max: 1e+07
diagonal:  Solving for rho, Initial residual = 0, Final residual = 0, No Iterations 0
diagonal:  Solving for rhoUx, Initial residual = 0, Final residual = 0, No Iterations 0
diagonal:  Solving for rhoUy, Initial residual = 0, Final residual = 0, No Iterations 0
diagonal:  Solving for rhoE, Initial residual = 0, Final residual = 0, No Iterations 0
bounding h, min: -4.30303e+12 max: 4.76926e+10 average: -1.41613e+10
new min: 1.007
new max: 1.007e+07

    From function specieThermo<thermo>::T(scalar f, scalar T0, scalar (specieThermo<thermo>::*F)(const scalar) const, scalar (specieThermo<thermo>::*dFdT)(const scalar) const) const
    in file /opt/foam/foam-extend-4.0/src/thermophysicalModels/specie/lnInclude/specieThermoI.H at line 72
    Maximum number of iterations exceeded.  T0 = 10000 F = 8.03586e+06 dFdT = 1007

    From function specieThermo<thermo>::T(scalar f, scalar T0, scalar (specieThermo<thermo>::*F)(const scalar) const, scalar (specieThermo<thermo>::*dFdT)(const scalar) const) const
    in file /opt/foam/foam-extend-4.0/src/thermophysicalModels/specie/lnInclude/specieThermoI.H at line 72
    Maximum number of iterations exceeded.  T0 = 7540.98 F = 5.55963e+06 dFdT = 1007

    From function specieThermo<thermo>::T(scalar f, scalar T0, scalar (specieThermo<thermo>::*F)(const scalar) const, scalar (specieThermo<thermo>::*dFdT)(const scalar) const) const
    in file /opt/foam/foam-extend-4.0/src/thermophysicalModels/specie/lnInclude/specieThermoI.H at line 72
    Maximum number of iterations exceeded.  T0 = 10000 F = 8.03586e+06 dFdT = 1007

    From function specieThermo<thermo>::T(scalar f, scalar T0, scalar (specieThermo<thermo>::*F)(const scalar) const, scalar (specieThermo<thermo>::*dFdT)(const scalar) const) const
    in file /opt/foam/foam-extend-4.0/src/thermophysicalModels/specie/lnInclude/specieThermoI.H at line 72
    Maximum number of iterations exceeded.  T0 = 7540.98 F = 5.55963e+06 dFdT = 1007

    From function specieThermo<thermo>::T(scalar f, scalar T0, scalar (specieThermo<thermo>::*F)(const scalar) const, scalar (specieThermo<thermo>::*dFdT)(const scalar) const) const
    in file /opt/foam/foam-extend-4.0/src/thermophysicalModels/specie/lnInclude/specieThermoI.H at line 72
    Maximum number of iterations exceeded.  T0 = 10000 F = 8.03586e+06 dFdT = 1007

    From function specieThermo<thermo>::T(scalar f, scalar T0, scalar (specieThermo<thermo>::*F)(const scalar) const, scalar (specieThermo<thermo>::*dFdT)(const scalar) const) const
    in file /opt/foam/foam-extend-4.0/src/thermophysicalModels/specie/lnInclude/specieThermoI.H at line 72
    Maximum number of iterations exceeded.  T0 = 7540.98 F = 5.55963e+06 dFdT = 1007
bounding rho, min: -5.29587e+07 max: 6.38173e+07 average: 7.76829
new min: 1.28937
new max: 10000
bounding p, min: 280.473 max: 1.85311e+10 average: 5.26595e+07
new max: 1e+07
diagonal:  Solving for rho, Initial residual = 0, Final residual = 0, No Iterations 0
diagonal:  Solving for rhoUx, Initial residual = 0, Final residual = 0, No Iterations 0
diagonal:  Solving for rhoUy, Initial residual = 0, Final residual = 0, No Iterations 0
diagonal:  Solving for rhoE, Initial residual = 0, Final residual = 0, No Iterations 0
bounding h, min: -1.9677e+13 max: 5.28635e+11 average: -5.77218e+10
new min: 1.007
new max: 1.007e+07

    From function specieThermo<thermo>::T(scalar f, scalar T0, scalar (specieThermo<thermo>::*F)(const scalar) const, scalar (specieThermo<thermo>::*dFdT)(const scalar) const) const
    in file /opt/foam/foam-extend-4.0/src/thermophysicalModels/specie/lnInclude/specieThermoI.H at line 72
    Maximum number of iterations exceeded.  T0 = 2517.88 F = 501368 dFdT = 1007

    From function specieThermo<thermo>::T(scalar f, scalar T0, scalar (specieThermo<thermo>::*F)(const scalar) const, scalar (specieThermo<thermo>::*dFdT)(const scalar) const) const
    in file /opt/foam/foam-extend-4.0/src/thermophysicalModels/specie/lnInclude/specieThermoI.H at line 72
    Maximum number of iterations exceeded.  T0 = 2517.88 F = 501368 dFdT = 1007

    From function specieThermo<thermo>::T(scalar f, scalar T0, scalar (specieThermo<thermo>::*F)(const scalar) const, scalar (specieThermo<thermo>::*dFdT)(const scalar) const) const
    in file /opt/foam/foam-extend-4.0/src/thermophysicalModels/specie/lnInclude/specieThermoI.H at line 72
    Maximum number of iterations exceeded.  T0 = 2517.88 F = 501368 dFdT = 1007
bounding rho, min: -1.77852e+08 max: 2.07952e+08 average: 7.75712
new min: 1.06497
new max: 10000
bounding p, min: 2876.99 max: 2.87699e+10 average: 1.21649e+08
new max: 1e+07
    ExecutionTime = 0.17 s

Courant Number mean: 72.2728 max: 20799.6 velocity magnitude: 3.4666e+06

 Time = 0.0002
diagonal:  Solving for rho, Initial residual = 0, Final residual = 0, No Iterations 0
diagonal:  Solving for rhoUx, Initial residual = 0, Final residual = 0, No Iterations 0
diagonal:  Solving for rhoUy, Initial residual = 0, Final residual = 0, No Iterations 0
diagonal:  Solving for rhoE, Initial residual = 0, Final residual = 0, No Iterations 0
bounding h, min: -2.32336e+16 max: 4.72164e+09 average: -4.67948e+13
new min: 1.007
new max: 1.007e+07

    From function specieThermo<thermo>::T(scalar f, scalar T0, scalar (specieThermo<thermo>::*F)(const scalar) const, scalar (specieThermo<thermo>::*dFdT)(const scalar) const) const
    in file /opt/foam/foam-extend-4.0/src/thermophysicalModels/specie/lnInclude/specieThermoI.H at line 72
    Maximum number of iterations exceeded.  T0 = 7540.98 F = 5.55963e+06 dFdT = 1007

    From function specieThermo<thermo>::T(scalar f, scalar T0, scalar (specieThermo<thermo>::*F)(const scalar) const, scalar (specieThermo<thermo>::*dFdT)(const scalar) const) const
    in file /opt/foam/foam-extend-4.0/src/thermophysicalModels/specie/lnInclude/specieThermoI.H at line 72
    Maximum number of iterations exceeded.  T0 = 10000 F = 8.03586e+06 dFdT = 1007

    From function specieThermo<thermo>::T(scalar f, scalar T0, scalar (specieThermo<thermo>::*F)(const scalar) const, scalar (specieThermo<thermo>::*dFdT)(const scalar) const) const
    in file /opt/foam/foam-extend-4.0/src/thermophysicalModels/specie/lnInclude/specieThermoI.H at line 72
    Maximum number of iterations exceeded.  T0 = 7540.98 F = 5.55963e+06 dFdT = 1007

    From function specieThermo<thermo>::T(scalar f, scalar T0, scalar (specieThermo<thermo>::*F)(const scalar) const, scalar (specieThermo<thermo>::*dFdT)(const scalar) const) const
    in file /opt/foam/foam-extend-4.0/src/thermophysicalModels/specie/lnInclude/specieThermoI.H at line 72
    Maximum number of iterations exceeded.  T0 = 7540.98 F = 5.55963e+06 dFdT = 1007

    From function specieThermo<thermo>::T(scalar f, scalar T0, scalar (specieThermo<thermo>::*F)(const scalar) const, scalar (specieThermo<thermo>::*dFdT)(const scalar) const) const
    in file /opt/foam/foam-extend-4.0/src/thermophysicalModels/specie/lnInclude/specieThermoI.H at line 72
    Maximum number of iterations exceeded.  T0 = 10000 F = 8.03586e+06 dFdT = 1007

    From function specieThermo<thermo>::T(scalar f, scalar T0, scalar (specieThermo<thermo>::*F)(const scalar) const, scalar (specieThermo<thermo>::*dFdT)(const scalar) const) const
    in file /opt/foam/foam-extend-4.0/src/thermophysicalModels/specie/lnInclude/specieThermoI.H at line 72
    Maximum number of iterations exceeded.  T0 = 7540.98 F = 5.55963e+06 dFdT = 1007

    From function specieThermo<thermo>::T(scalar f, scalar T0, scalar (specieThermo<thermo>::*F)(const scalar) const, scalar (specieThermo<thermo>::*dFdT)(const scalar) const) const
    in file /opt/foam/foam-extend-4.0/src/thermophysicalModels/specie/lnInclude/specieThermoI.H at line 72
    Maximum number of iterations exceeded.  T0 = 7540.98 F = 5.55963e+06 dFdT = 1007

    From function specieThermo<thermo>::T(scalar f, scalar T0, scalar (specieThermo<thermo>::*F)(const scalar) const, scalar (specieThermo<thermo>::*dFdT)(const scalar) const) const
    in file /opt/foam/foam-extend-4.0/src/thermophysicalModels/specie/lnInclude/specieThermoI.H at line 72
    Maximum number of iterations exceeded.  T0 = 10000 F = 8.03586e+06 dFdT = 1007

    From function specieThermo<thermo>::T(scalar f, scalar T0, scalar (specieThermo<thermo>::*F)(const scalar) const, scalar (specieThermo<thermo>::*dFdT)(const scalar) const) const
    in file /opt/foam/foam-extend-4.0/src/thermophysicalModels/specie/lnInclude/specieThermoI.H at line 72
    Maximum number of iterations exceeded.  T0 = 7540.98 F = 5.55963e+06 dFdT = 1007
bounding rho, min: -3.90209e+07 max: 4.3986e+07 average: 247.559
new min: 1.28937
new max: 10000
bounding p, min: 931.269 max: 2.87699e+10 average: 1.4732e+08
new max: 1e+07
diagonal:  Solving for rho, Initial residual = 0, Final residual = 0, No Iterations 0
diagonal:  Solving for rhoUx, Initial residual = 0, Final residual = 0, No Iterations 0
diagonal:  Solving for rhoUy, Initial residual = 0, Final residual = 0, No Iterations 0
diagonal:  Solving for rhoE, Initial residual = 0, Final residual = 0, No Iterations 0
bounding h, min: -5.11221e+16 max: 7.07328e+15 average: -1.07891e+14
new min: 1.007
new max: 1.007e+07

    From function specieThermo<thermo>::T(scalar f, scalar T0, scalar (specieThermo<thermo>::*F)(const scalar) const, scalar (specieThermo<thermo>::*dFdT)(const scalar) const) const
    in file /opt/foam/foam-extend-4.0/src/thermophysicalModels/specie/lnInclude/specieThermoI.H at line 72
    Maximum number of iterations exceeded.  T0 = 2960.6 F = 947185 dFdT = 1007

    From function specieThermo<thermo>::T(scalar f, scalar T0, scalar (specieThermo<thermo>::*F)(const scalar) const, scalar (specieThermo<thermo>::*dFdT)(const scalar) const) const
    in file /opt/foam/foam-extend-4.0/src/thermophysicalModels/specie/lnInclude/specieThermoI.H at line 72
    Maximum number of iterations exceeded.  T0 = 7540.98 F = 5.55963e+06 dFdT = 1007

    From function specieThermo<thermo>::T(scalar f, scalar T0, scalar (specieThermo<thermo>::*F)(const scalar) const, scalar (specieThermo<thermo>::*dFdT)(const scalar) const) const
    in file /opt/foam/foam-extend-4.0/src/thermophysicalModels/specie/lnInclude/specieThermoI.H at line 72
    Maximum number of iterations exceeded.  T0 = 10000 F = 8.03586e+06 dFdT = 1007

    From function specieThermo<thermo>::T(scalar f, scalar T0, scalar (specieThermo<thermo>::*F)(const scalar) const, scalar (specieThermo<thermo>::*dFdT)(const scalar) const) const
    in file /opt/foam/foam-extend-4.0/src/thermophysicalModels/specie/lnInclude/specieThermoI.H at line 72
    Maximum number of iterations exceeded.  T0 = 7695.74 F = 5.71547e+06 dFdT = 1007

    From function specieThermo<thermo>::T(scalar f, scalar T0, scalar (specieThermo<thermo>::*F)(const scalar) const, scalar (specieThermo<thermo>::*dFdT)(const scalar) const) const
    in file /opt/foam/foam-extend-4.0/src/thermophysicalModels/specie/lnInclude/specieThermoI.H at line 72
    Maximum number of iterations exceeded.  T0 = 2960.6 F = 947185 dFdT = 1007

    From function specieThermo<thermo>::T(scalar f, scalar T0, scalar (specieThermo<thermo>::*F)(const scalar) const, scalar (specieThermo<thermo>::*dFdT)(const scalar) const) const
    in file /opt/foam/foam-extend-4.0/src/thermophysicalModels/specie/lnInclude/specieThermoI.H at line 72
    Maximum number of iterations exceeded.  T0 = 7540.98 F = 5.55963e+06 dFdT = 1007

    From function specieThermo<thermo>::T(scalar f, scalar T0, scalar (specieThermo<thermo>::*F)(const scalar) const, scalar (specieThermo<thermo>::*dFdT)(const scalar) const) const
    in file /opt/foam/foam-extend-4.0/src/thermophysicalModels/specie/lnInclude/specieThermoI.H at line 72
    Maximum number of iterations exceeded.  T0 = 10000 F = 8.03586e+06 dFdT = 1007

    From function specieThermo<thermo>::T(scalar f, scalar T0, scalar (specieThermo<thermo>::*F)(const scalar) const, scalar (specieThermo<thermo>::*dFdT)(const scalar) const) const
    in file /opt/foam/foam-extend-4.0/src/thermophysicalModels/specie/lnInclude/specieThermoI.H at line 72
    Maximum number of iterations exceeded.  T0 = 7695.74 F = 5.71547e+06 dFdT = 1007

    From function specieThermo<thermo>::T(scalar f, scalar T0, scalar (specieThermo<thermo>::*F)(const scalar) const, scalar (specieThermo<thermo>::*dFdT)(const scalar) const) const
    in file /opt/foam/foam-extend-4.0/src/thermophysicalModels/specie/lnInclude/specieThermoI.H at line 72
    Maximum number of iterations exceeded.  T0 = 2960.6 F = 947185 dFdT = 1007

    From function specieThermo<thermo>::T(scalar f, scalar T0, scalar (specieThermo<thermo>::*F)(const scalar) const, scalar (specieThermo<thermo>::*dFdT)(const scalar) const) const
    in file /opt/foam/foam-extend-4.0/src/thermophysicalModels/specie/lnInclude/specieThermoI.H at line 72
    Maximum number of iterations exceeded.  T0 = 7540.98 F = 5.55963e+06 dFdT = 1007

    From function specieThermo<thermo>::T(scalar f, scalar T0, scalar (specieThermo<thermo>::*F)(const scalar) const, scalar (specieThermo<thermo>::*dFdT)(const scalar) const) const
    in file /opt/foam/foam-extend-4.0/src/thermophysicalModels/specie/lnInclude/specieThermoI.H at line 72
    Maximum number of iterations exceeded.  T0 = 10000 F = 8.03586e+06 dFdT = 1007

    From function specieThermo<thermo>::T(scalar f, scalar T0, scalar (specieThermo<thermo>::*F)(const scalar) const, scalar (specieThermo<thermo>::*dFdT)(const scalar) const) const
    in file /opt/foam/foam-extend-4.0/src/thermophysicalModels/specie/lnInclude/specieThermoI.H at line 72
    Maximum number of iterations exceeded.  T0 = 7695.74 F = 5.71547e+06 dFdT = 1007
bounding rho, min: -1.28394e+09 max: 3.29021e+09 average: 247.386
new min: 0.001
new max: 10000
bounding p, min: 0.000287699 max: 2.87699e+10 average: 1.9508e+08
new min: 579.526
new max: 1e+07
diagonal:  Solving for rho, Initial residual = 0, Final residual = 0, No Iterations 0
diagonal:  Solving for rhoUx, Initial residual = 0, Final residual = 0, No Iterations 0
diagonal:  Solving for rhoUy, Initial residual = 0, Final residual = 0, No Iterations 0
diagonal:  Solving for rhoE, Initial residual = 0, Final residual = 0, No Iterations 0
bounding h, min: -1.38534e+16 max: 3.43264e+16 average: 4.36482e+12
new min: 1.007
new max: 1.007e+07

    From function specieThermo<thermo>::T(scalar f, scalar T0, scalar (specieThermo<thermo>::*F)(const scalar) const, scalar (specieThermo<thermo>::*dFdT)(const scalar) const) const
    in file /opt/foam/foam-extend-4.0/src/thermophysicalModels/specie/lnInclude/specieThermoI.H at line 72
    Maximum number of iterations exceeded.  T0 = 3145.64 F = 1.13352e+06 dFdT = 1007

    From function specieThermo<thermo>::T(scalar f, scalar T0, scalar (specieThermo<thermo>::*F)(const scalar) const, scalar (specieThermo<thermo>::*dFdT)(const scalar) const) const
    in file /opt/foam/foam-extend-4.0/src/thermophysicalModels/specie/lnInclude/specieThermoI.H at line 72
    Maximum number of iterations exceeded.  T0 = 3145.64 F = 1.13352e+06 dFdT = 1007

    From function specieThermo<thermo>::T(scalar f, scalar T0, scalar (specieThermo<thermo>::*F)(const scalar) const, scalar (specieThermo<thermo>::*dFdT)(const scalar) const) const
    in file /opt/foam/foam-extend-4.0/src/thermophysicalModels/specie/lnInclude/specieThermoI.H at line 72
    Maximum number of iterations exceeded.  T0 = 3145.64 F = 1.13352e+06 dFdT = 1007
bounding rho, min: -5.52022e+12 max: 4.56827e+12 average: 703.822
new min: 1.28937
new max: 10000
bounding p, min: 2876.99 max: 2.87699e+10 average: 3.98395e+08
new max: 1e+07
diagonal:  Solving for rho, Initial residual = 0, Final residual = 0, No Iterations 0
diagonal:  Solving for rhoUx, Initial residual = 0, Final residual = 0, No Iterations 0
diagonal:  Solving for rhoUy, Initial residual = 0, Final residual = 0, No Iterations 0
diagonal:  Solving for rhoE, Initial residual = 0, Final residual = 0, No Iterations 0
bounding h, min: -2.45546e+18 max: 1.24619e+08 average: -4.39855e+15
new min: 1.007
new max: 1.007e+07

    From function specieThermo<thermo>::T(scalar f, scalar T0, scalar (specieThermo<thermo>::*F)(const scalar) const, scalar (specieThermo<thermo>::*dFdT)(const scalar) const) const
    in file /opt/foam/foam-extend-4.0/src/thermophysicalModels/specie/lnInclude/specieThermoI.H at line 72
    Maximum number of iterations exceeded.  T0 = 3273.12 F = 1.26189e+06 dFdT = 1007

    From function specieThermo<thermo>::T(scalar f, scalar T0, scalar (specieThermo<thermo>::*F)(const scalar) const, scalar (specieThermo<thermo>::*dFdT)(const scalar) const) const
    in file /opt/foam/foam-extend-4.0/src/thermophysicalModels/specie/lnInclude/specieThermoI.H at line 72
    Maximum number of iterations exceeded.  T0 = 10000 F = 8.03586e+06 dFdT = 1007

    From function specieThermo<thermo>::T(scalar f, scalar T0, scalar (specieThermo<thermo>::*F)(const scalar) const, scalar (specieThermo<thermo>::*dFdT)(const scalar) const) const
    in file /opt/foam/foam-extend-4.0/src/thermophysicalModels/specie/lnInclude/specieThermoI.H at line 72
    Maximum number of iterations exceeded.  T0 = 10000 F = 8.03586e+06 dFdT = 1007

    From function specieThermo<thermo>::T(scalar f, scalar T0, scalar (specieThermo<thermo>::*F)(const scalar) const, scalar (specieThermo<thermo>::*dFdT)(const scalar) const) const
    in file /opt/foam/foam-extend-4.0/src/thermophysicalModels/specie/lnInclude/specieThermoI.H at line 72
    Maximum number of iterations exceeded.  T0 = 10000 F = 8.03586e+06 dFdT = 1007

    From function specieThermo<thermo>::T(scalar f, scalar T0, scalar (specieThermo<thermo>::*F)(const scalar) const, scalar (specieThermo<thermo>::*dFdT)(const scalar) const) const
    in file /opt/foam/foam-extend-4.0/src/thermophysicalModels/specie/lnInclude/specieThermoI.H at line 72
    Maximum number of iterations exceeded.  T0 = 7540.98 F = 5.55963e+06 dFdT = 1007

    From function specieThermo<thermo>::T(scalar f, scalar T0, scalar (specieThermo<thermo>::*F)(const scalar) const, scalar (specieThermo<thermo>::*dFdT)(const scalar) const) const
    in file /opt/foam/foam-extend-4.0/src/thermophysicalModels/specie/lnInclude/specieThermoI.H at line 72
    Maximum number of iterations exceeded.  T0 = 7540.98 F = 5.55963e+06 dFdT = 1007

    From function specieThermo<thermo>::T(scalar f, scalar T0, scalar (specieThermo<thermo>::*F)(const scalar) const, scalar (specieThermo<thermo>::*dFdT)(const scalar) const) const
    in file /opt/foam/foam-extend-4.0/src/thermophysicalModels/specie/lnInclude/specieThermoI.H at line 72
    Maximum number of iterations exceeded.  T0 = 10000 F = 8.03586e+06 dFdT = 1007

    From function specieThermo<thermo>::T(scalar f, scalar T0, scalar (specieThermo<thermo>::*F)(const scalar) const, scalar (specieThermo<thermo>::*dFdT)(const scalar) const) const
    in file /opt/foam/foam-extend-4.0/src/thermophysicalModels/specie/lnInclude/specieThermoI.H at line 72
    Maximum number of iterations exceeded.  T0 = 10000 F = 8.03586e+06 dFdT = 1007

    From function specieThermo<thermo>::T(scalar f, scalar T0, scalar (specieThermo<thermo>::*F)(const scalar) const, scalar (specieThermo<thermo>::*dFdT)(const scalar) const) const
    in file /opt/foam/foam-extend-4.0/src/thermophysicalModels/specie/lnInclude/specieThermoI.H at line 72
    Maximum number of iterations exceeded.  T0 = 10000 F = 8.03586e+06 dFdT = 1007

    From function specieThermo<thermo>::T(scalar f, scalar T0, scalar (specieThermo<thermo>::*F)(const scalar) const, scalar (specieThermo<thermo>::*dFdT)(const scalar) const) const
    in file /opt/foam/foam-extend-4.0/src/thermophysicalModels/specie/lnInclude/specieThermoI.H at line 72
    Maximum number of iterations exceeded.  T0 = 10000 F = 8.03586e+06 dFdT = 1007

    From function specieThermo<thermo>::T(scalar f, scalar T0, scalar (specieThermo<thermo>::*F)(const scalar) const, scalar (specieThermo<thermo>::*dFdT)(const scalar) const) const
    in file /opt/foam/foam-extend-4.0/src/thermophysicalModels/specie/lnInclude/specieThermoI.H at line 72
    Maximum number of iterations exceeded.  T0 = 7540.98 F = 5.55963e+06 dFdT = 1007

    From function specieThermo<thermo>::T(scalar f, scalar T0, scalar (specieThermo<thermo>::*F)(const scalar) const, scalar (specieThermo<thermo>::*dFdT)(const scalar) const) const
    in file /opt/foam/foam-extend-4.0/src/thermophysicalModels/specie/lnInclude/specieThermoI.H at line 72
    Maximum number of iterations exceeded.  T0 = 3273.12 F = 1.26189e+06 dFdT = 1007

    From function specieThermo<thermo>::T(scalar f, scalar T0, scalar (specieThermo<thermo>::*F)(const scalar) const, scalar (specieThermo<thermo>::*dFdT)(const scalar) const) const
    in file /opt/foam/foam-extend-4.0/src/thermophysicalModels/specie/lnInclude/specieThermoI.H at line 72
    Maximum number of iterations exceeded.  T0 = 10000 F = 8.03586e+06 dFdT = 1007

    From function specieThermo<thermo>::T(scalar f, scalar T0, scalar (specieThermo<thermo>::*F)(const scalar) const, scalar (specieThermo<thermo>::*dFdT)(const scalar) const) const
    in file /opt/foam/foam-extend-4.0/src/thermophysicalModels/specie/lnInclude/specieThermoI.H at line 72
    Maximum number of iterations exceeded.  T0 = 10000 F = 8.03586e+06 dFdT = 1007

    From function specieThermo<thermo>::T(scalar f, scalar T0, scalar (specieThermo<thermo>::*F)(const scalar) const, scalar (specieThermo<thermo>::*dFdT)(const scalar) const) const
    in file /opt/foam/foam-extend-4.0/src/thermophysicalModels/specie/lnInclude/specieThermoI.H at line 72
    Maximum number of iterations exceeded.  T0 = 10000 F = 8.03586e+06 dFdT = 1007

    From function specieThermo<thermo>::T(scalar f, scalar T0, scalar (specieThermo<thermo>::*F)(const scalar) const, scalar (specieThermo<thermo>::*dFdT)(const scalar) const) const
    in file /opt/foam/foam-extend-4.0/src/thermophysicalModels/specie/lnInclude/specieThermoI.H at line 72
    Maximum number of iterations exceeded.  T0 = 7540.98 F = 5.55963e+06 dFdT = 1007

    From function specieThermo<thermo>::T(scalar f, scalar T0, scalar (specieThermo<thermo>::*F)(const scalar) const, scalar (specieThermo<thermo>::*dFdT)(const scalar) const) const
    in file /opt/foam/foam-extend-4.0/src/thermophysicalModels/specie/lnInclude/specieThermoI.H at line 72
    Maximum number of iterations exceeded.  T0 = 7540.98 F = 5.55963e+06 dFdT = 1007

    From function specieThermo<thermo>::T(scalar f, scalar T0, scalar (specieThermo<thermo>::*F)(const scalar) const, scalar (specieThermo<thermo>::*dFdT)(const scalar) const) const
    in file /opt/foam/foam-extend-4.0/src/thermophysicalModels/specie/lnInclude/specieThermoI.H at line 72
    Maximum number of iterations exceeded.  T0 = 10000 F = 8.03586e+06 dFdT = 1007

    From function specieThermo<thermo>::T(scalar f, scalar T0, scalar (specieThermo<thermo>::*F)(const scalar) const, scalar (specieThermo<thermo>::*dFdT)(const scalar) const) const
    in file /opt/foam/foam-extend-4.0/src/thermophysicalModels/specie/lnInclude/specieThermoI.H at line 72
    Maximum number of iterations exceeded.  T0 = 10000 F = 8.03586e+06 dFdT = 1007

    From function specieThermo<thermo>::T(scalar f, scalar T0, scalar (specieThermo<thermo>::*F)(const scalar) const, scalar (specieThermo<thermo>::*dFdT)(const scalar) const) const
    in file /opt/foam/foam-extend-4.0/src/thermophysicalModels/specie/lnInclude/specieThermoI.H at line 72
    Maximum number of iterations exceeded.  T0 = 10000 F = 8.03586e+06 dFdT = 1007

    From function specieThermo<thermo>::T(scalar f, scalar T0, scalar (specieThermo<thermo>::*F)(const scalar) const, scalar (specieThermo<thermo>::*dFdT)(const scalar) const) const
    in file /opt/foam/foam-extend-4.0/src/thermophysicalModels/specie/lnInclude/specieThermoI.H at line 72
    Maximum number of iterations exceeded.  T0 = 10000 F = 8.03586e+06 dFdT = 1007

    From function specieThermo<thermo>::T(scalar f, scalar T0, scalar (specieThermo<thermo>::*F)(const scalar) const, scalar (specieThermo<thermo>::*dFdT)(const scalar) const) const
    in file /opt/foam/foam-extend-4.0/src/thermophysicalModels/specie/lnInclude/specieThermoI.H at line 72
    Maximum number of iterations exceeded.  T0 = 7540.98 F = 5.55963e+06 dFdT = 1007

    From function specieThermo<thermo>::T(scalar f, scalar T0, scalar (specieThermo<thermo>::*F)(const scalar) const, scalar (specieThermo<thermo>::*dFdT)(const scalar) const) const
    in file /opt/foam/foam-extend-4.0/src/thermophysicalModels/specie/lnInclude/specieThermoI.H at line 72
    Maximum number of iterations exceeded.  T0 = 3273.12 F = 1.26189e+06 dFdT = 1007

    From function specieThermo<thermo>::T(scalar f, scalar T0, scalar (specieThermo<thermo>::*F)(const scalar) const, scalar (specieThermo<thermo>::*dFdT)(const scalar) const) const
    in file /opt/foam/foam-extend-4.0/src/thermophysicalModels/specie/lnInclude/specieThermoI.H at line 72
    Maximum number of iterations exceeded.  T0 = 10000 F = 8.03586e+06 dFdT = 1007

    From function specieThermo<thermo>::T(scalar f, scalar T0, scalar (specieThermo<thermo>::*F)(const scalar) const, scalar (specieThermo<thermo>::*dFdT)(const scalar) const) const
    in file /opt/foam/foam-extend-4.0/src/thermophysicalModels/specie/lnInclude/specieThermoI.H at line 72
    Maximum number of iterations exceeded.  T0 = 10000 F = 8.03586e+06 dFdT = 1007

    From function specieThermo<thermo>::T(scalar f, scalar T0, scalar (specieThermo<thermo>::*F)(const scalar) const, scalar (specieThermo<thermo>::*dFdT)(const scalar) const) const
    in file /opt/foam/foam-extend-4.0/src/thermophysicalModels/specie/lnInclude/specieThermoI.H at line 72
    Maximum number of iterations exceeded.  T0 = 10000 F = 8.03586e+06 dFdT = 1007

    From function specieThermo<thermo>::T(scalar f, scalar T0, scalar (specieThermo<thermo>::*F)(const scalar) const, scalar (specieThermo<thermo>::*dFdT)(const scalar) const) const
    in file /opt/foam/foam-extend-4.0/src/thermophysicalModels/specie/lnInclude/specieThermoI.H at line 72
    Maximum number of iterations exceeded.  T0 = 7540.98 F = 5.55963e+06 dFdT = 1007

    From function specieThermo<thermo>::T(scalar f, scalar T0, scalar (specieThermo<thermo>::*F)(const scalar) const, scalar (specieThermo<thermo>::*dFdT)(const scalar) const) const
    in file /opt/foam/foam-extend-4.0/src/thermophysicalModels/specie/lnInclude/specieThermoI.H at line 72
    Maximum number of iterations exceeded.  T0 = 7540.98 F = 5.55963e+06 dFdT = 1007

    From function specieThermo<thermo>::T(scalar f, scalar T0, scalar (specieThermo<thermo>::*F)(const scalar) const, scalar (specieThermo<thermo>::*dFdT)(const scalar) const) const
    in file /opt/foam/foam-extend-4.0/src/thermophysicalModels/specie/lnInclude/specieThermoI.H at line 72
    Maximum number of iterations exceeded.  T0 = 10000 F = 8.03586e+06 dFdT = 1007

    From function specieThermo<thermo>::T(scalar f, scalar T0, scalar (specieThermo<thermo>::*F)(const scalar) const, scalar (specieThermo<thermo>::*dFdT)(const scalar) const) const
    in file /opt/foam/foam-extend-4.0/src/thermophysicalModels/specie/lnInclude/specieThermoI.H at line 72
    Maximum number of iterations exceeded.  T0 = 10000 F = 8.03586e+06 dFdT = 1007

    From function specieThermo<thermo>::T(scalar f, scalar T0, scalar (specieThermo<thermo>::*F)(const scalar) const, scalar (specieThermo<thermo>::*dFdT)(const scalar) const) const
    in file /opt/foam/foam-extend-4.0/src/thermophysicalModels/specie/lnInclude/specieThermoI.H at line 72
    Maximum number of iterations exceeded.  T0 = 10000 F = 8.03586e+06 dFdT = 1007

    From function specieThermo<thermo>::T(scalar f, scalar T0, scalar (specieThermo<thermo>::*F)(const scalar) const, scalar (specieThermo<thermo>::*dFdT)(const scalar) const) const
    in file /opt/foam/foam-extend-4.0/src/thermophysicalModels/specie/lnInclude/specieThermoI.H at line 72
    Maximum number of iterations exceeded.  T0 = 10000 F = 8.03586e+06 dFdT = 1007

    From function specieThermo<thermo>::T(scalar f, scalar T0, scalar (specieThermo<thermo>::*F)(const scalar) const, scalar (specieThermo<thermo>::*dFdT)(const scalar) const) const
    in file /opt/foam/foam-extend-4.0/src/thermophysicalModels/specie/lnInclude/specieThermoI.H at line 72
    Maximum number of iterations exceeded.  T0 = 7540.98 F = 5.55963e+06 dFdT = 1007
bounding rho, min: -1.39914e+10 max: 5.73066e+09 average: 246.811
new min: 1.26812
new max: 10000
bounding p, min: 2876.99 max: 1.72694e+10 average: 4.19012e+07
new max: 1e+07
    ExecutionTime = 0.18 s

Courant Number mean: 5161.22 max: 842020 velocity magnitude: 1.40337e+08

 Time = 0.00021
diagonal:  Solving for rho, Initial residual = 0, Final residual = 0, No Iterations 0
diagonal:  Solving for rhoUx, Initial residual = 0, Final residual = 0, No Iterations 0
diagonal:  Solving for rhoUy, Initial residual = 0, Final residual = 0, No Iterations 0
diagonal:  Solving for rhoE, Initial residual = 0, Final residual = 0, No Iterations 0
bounding h, min: -3.30314e+20 max: 3.07094e+16 average: -5.75507e+17
new min: 1.007
new max: 1.007e+07

    From function specieThermo<thermo>::T(scalar f, scalar T0, scalar (specieThermo<thermo>::*F)(const scalar) const, scalar (specieThermo<thermo>::*dFdT)(const scalar) const) const
    in file /opt/foam/foam-extend-4.0/src/thermophysicalModels/specie/lnInclude/specieThermoI.H at line 72
    Maximum number of iterations exceeded.  T0 = 3363.05 F = 1.35245e+06 dFdT = 1007

    From function specieThermo<thermo>::T(scalar f, scalar T0, scalar (specieThermo<thermo>::*F)(const scalar) const, scalar (specieThermo<thermo>::*dFdT)(const scalar) const) const
    in file /opt/foam/foam-extend-4.0/src/thermophysicalModels/specie/lnInclude/specieThermoI.H at line 72
    Maximum number of iterations exceeded.  T0 = 3363.05 F = 1.35245e+06 dFdT = 1007

    From function specieThermo<thermo>::T(scalar f, scalar T0, scalar (specieThermo<thermo>::*F)(const scalar) const, scalar (specieThermo<thermo>::*dFdT)(const scalar) const) const
    in file /opt/foam/foam-extend-4.0/src/thermophysicalModels/specie/lnInclude/specieThermoI.H at line 72
    Maximum number of iterations exceeded.  T0 = 3363.05 F = 1.35245e+06 dFdT = 1007
bounding rho, min: -6.97301e+09 max: 1.12111e+10 average: 354.275
new min: 0.001
new max: 10000
bounding p, min: 0.000287699 max: 2.42243e+10 average: 2.3452e+08
new min: 533.493
new max: 1e+07
diagonal:  Solving for rho, Initial residual = 0, Final residual = 0, No Iterations 0
diagonal:  Solving for rhoUx, Initial residual = 0, Final residual = 0, No Iterations 0
diagonal:  Solving for rhoUy, Initial residual = 0, Final residual = 0, No Iterations 0
diagonal:  Solving for rhoE, Initial residual = 0, Final residual = 0, No Iterations 0
bounding h, min: -1.97556e+21 max: 2.32975e+17 average: -5.54268e+18
new min: 1.007
new max: 1.007e+07

    From function specieThermo<thermo>::T(scalar f, scalar T0, scalar (specieThermo<thermo>::*F)(const scalar) const, scalar (specieThermo<thermo>::*dFdT)(const scalar) const) const
    in file /opt/foam/foam-extend-4.0/src/thermophysicalModels/specie/lnInclude/specieThermoI.H at line 72
    Maximum number of iterations exceeded.  T0 = 3936.43 F = 1.92984e+06 dFdT = 1007

    From function specieThermo<thermo>::T(scalar f, scalar T0, scalar (specieThermo<thermo>::*F)(const scalar) const, scalar (specieThermo<thermo>::*dFdT)(const scalar) const) const
    in file /opt/foam/foam-extend-4.0/src/thermophysicalModels/specie/lnInclude/specieThermoI.H at line 72
    Maximum number of iterations exceeded.  T0 = 10000 F = 8.03586e+06 dFdT = 1007

    From function specieThermo<thermo>::T(scalar f, scalar T0, scalar (specieThermo<thermo>::*F)(const scalar) const, scalar (specieThermo<thermo>::*dFdT)(const scalar) const) const
    in file /opt/foam/foam-extend-4.0/src/thermophysicalModels/specie/lnInclude/specieThermoI.H at line 72
    Maximum number of iterations exceeded.  T0 = 10000 F = 8.03586e+06 dFdT = 1007

    From function specieThermo<thermo>::T(scalar f, scalar T0, scalar (specieThermo<thermo>::*F)(const scalar) const, scalar (specieThermo<thermo>::*dFdT)(const scalar) const) const
    in file /opt/foam/foam-extend-4.0/src/thermophysicalModels/specie/lnInclude/specieThermoI.H at line 72
    Maximum number of iterations exceeded.  T0 = 7540.98 F = 5.55963e+06 dFdT = 1007

    From function specieThermo<thermo>::T(scalar f, scalar T0, scalar (specieThermo<thermo>::*F)(const scalar) const, scalar (specieThermo<thermo>::*dFdT)(const scalar) const) const
    in file /opt/foam/foam-extend-4.0/src/thermophysicalModels/specie/lnInclude/specieThermoI.H at line 72
    Maximum number of iterations exceeded.  T0 = 10000 F = 8.03586e+06 dFdT = 1007

    From function specieThermo<thermo>::T(scalar f, scalar T0, scalar (specieThermo<thermo>::*F)(const scalar) const, scalar (specieThermo<thermo>::*dFdT)(const scalar) const) const
    in file /opt/foam/foam-extend-4.0/src/thermophysicalModels/specie/lnInclude/specieThermoI.H at line 72
    Maximum number of iterations exceeded.  T0 = 7540.98 F = 5.55963e+06 dFdT = 1007

    From function specieThermo<thermo>::T(scalar f, scalar T0, scalar (specieThermo<thermo>::*F)(const scalar) const, scalar (specieThermo<thermo>::*dFdT)(const scalar) const) const
    in file /opt/foam/foam-extend-4.0/src/thermophysicalModels/specie/lnInclude/specieThermoI.H at line 72
    Maximum number of iterations exceeded.  T0 = 7540.98 F = 5.55963e+06 dFdT = 1007

    From function specieThermo<thermo>::T(scalar f, scalar T0, scalar (specieThermo<thermo>::*F)(const scalar) const, scalar (specieThermo<thermo>::*dFdT)(const scalar) const) const
    in file /opt/foam/foam-extend-4.0/src/thermophysicalModels/specie/lnInclude/specieThermoI.H at line 72
    Maximum number of iterations exceeded.  T0 = 7717.48 F = 5.73736e+06 dFdT = 1007

    From function specieThermo<thermo>::T(scalar f, scalar T0, scalar (specieThermo<thermo>::*F)(const scalar) const, scalar (specieThermo<thermo>::*dFdT)(const scalar) const) const
    in file /opt/foam/foam-extend-4.0/src/thermophysicalModels/specie/lnInclude/specieThermoI.H at line 72
    Maximum number of iterations exceeded.  T0 = 3936.43 F = 1.92984e+06 dFdT = 1007

    From function specieThermo<thermo>::T(scalar f, scalar T0, scalar (specieThermo<thermo>::*F)(const scalar) const, scalar (specieThermo<thermo>::*dFdT)(const scalar) const) const
    in file /opt/foam/foam-extend-4.0/src/thermophysicalModels/specie/lnInclude/specieThermoI.H at line 72
    Maximum number of iterations exceeded.  T0 = 10000 F = 8.03586e+06 dFdT = 1007

    From function specieThermo<thermo>::T(scalar f, scalar T0, scalar (specieThermo<thermo>::*F)(const scalar) const, scalar (specieThermo<thermo>::*dFdT)(const scalar) const) const
    in file /opt/foam/foam-extend-4.0/src/thermophysicalModels/specie/lnInclude/specieThermoI.H at line 72
    Maximum number of iterations exceeded.  T0 = 10000 F = 8.03586e+06 dFdT = 1007

    From function specieThermo<thermo>::T(scalar f, scalar T0, scalar (specieThermo<thermo>::*F)(const scalar) const, scalar (specieThermo<thermo>::*dFdT)(const scalar) const) const
    in file /opt/foam/foam-extend-4.0/src/thermophysicalModels/specie/lnInclude/specieThermoI.H at line 72
    Maximum number of iterations exceeded.  T0 = 7540.98 F = 5.55963e+06 dFdT = 1007

    From function specieThermo<thermo>::T(scalar f, scalar T0, scalar (specieThermo<thermo>::*F)(const scalar) const, scalar (specieThermo<thermo>::*dFdT)(const scalar) const) const
    in file /opt/foam/foam-extend-4.0/src/thermophysicalModels/specie/lnInclude/specieThermoI.H at line 72
    Maximum number of iterations exceeded.  T0 = 10000 F = 8.03586e+06 dFdT = 1007

    From function specieThermo<thermo>::T(scalar f, scalar T0, scalar (specieThermo<thermo>::*F)(const scalar) const, scalar (specieThermo<thermo>::*dFdT)(const scalar) const) const
    in file /opt/foam/foam-extend-4.0/src/thermophysicalModels/specie/lnInclude/specieThermoI.H at line 72
    Maximum number of iterations exceeded.  T0 = 7540.98 F = 5.55963e+06 dFdT = 1007

    From function specieThermo<thermo>::T(scalar f, scalar T0, scalar (specieThermo<thermo>::*F)(const scalar) const, scalar (specieThermo<thermo>::*dFdT)(const scalar) const) const
    in file /opt/foam/foam-extend-4.0/src/thermophysicalModels/specie/lnInclude/specieThermoI.H at line 72
    Maximum number of iterations exceeded.  T0 = 7540.98 F = 5.55963e+06 dFdT = 1007

    From function specieThermo<thermo>::T(scalar f, scalar T0, scalar (specieThermo<thermo>::*F)(const scalar) const, scalar (specieThermo<thermo>::*dFdT)(const scalar) const) const
    in file /opt/foam/foam-extend-4.0/src/thermophysicalModels/specie/lnInclude/specieThermoI.H at line 72
    Maximum number of iterations exceeded.  T0 = 7717.48 F = 5.73736e+06 dFdT = 1007

    From function specieThermo<thermo>::T(scalar f, scalar T0, scalar (specieThermo<thermo>::*F)(const scalar) const, scalar (specieThermo<thermo>::*dFdT)(const scalar) const) const
    in file /opt/foam/foam-extend-4.0/src/thermophysicalModels/specie/lnInclude/specieThermoI.H at line 72
    Maximum number of iterations exceeded.  T0 = 3936.43 F = 1.92984e+06 dFdT = 1007

    From function specieThermo<thermo>::T(scalar f, scalar T0, scalar (specieThermo<thermo>::*F)(const scalar) const, scalar (specieThermo<thermo>::*dFdT)(const scalar) const) const
    in file /opt/foam/foam-extend-4.0/src/thermophysicalModels/specie/lnInclude/specieThermoI.H at line 72
    Maximum number of iterations exceeded.  T0 = 10000 F = 8.03586e+06 dFdT = 1007

    From function specieThermo<thermo>::T(scalar f, scalar T0, scalar (specieThermo<thermo>::*F)(const scalar) const, scalar (specieThermo<thermo>::*dFdT)(const scalar) const) const
    in file /opt/foam/foam-extend-4.0/src/thermophysicalModels/specie/lnInclude/specieThermoI.H at line 72
    Maximum number of iterations exceeded.  T0 = 10000 F = 8.03586e+06 dFdT = 1007

    From function specieThermo<thermo>::T(scalar f, scalar T0, scalar (specieThermo<thermo>::*F)(const scalar) const, scalar (specieThermo<thermo>::*dFdT)(const scalar) const) const
    in file /opt/foam/foam-extend-4.0/src/thermophysicalModels/specie/lnInclude/specieThermoI.H at line 72
    Maximum number of iterations exceeded.  T0 = 7540.98 F = 5.55963e+06 dFdT = 1007

    From function specieThermo<thermo>::T(scalar f, scalar T0, scalar (specieThermo<thermo>::*F)(const scalar) const, scalar (specieThermo<thermo>::*dFdT)(const scalar) const) const
    in file /opt/foam/foam-extend-4.0/src/thermophysicalModels/specie/lnInclude/specieThermoI.H at line 72
    Maximum number of iterations exceeded.  T0 = 10000 F = 8.03586e+06 dFdT = 1007

    From function specieThermo<thermo>::T(scalar f, scalar T0, scalar (specieThermo<thermo>::*F)(const scalar) const, scalar (specieThermo<thermo>::*dFdT)(const scalar) const) const
    in file /opt/foam/foam-extend-4.0/src/thermophysicalModels/specie/lnInclude/specieThermoI.H at line 72
    Maximum number of iterations exceeded.  T0 = 7540.98 F = 5.55963e+06 dFdT = 1007

    From function specieThermo<thermo>::T(scalar f, scalar T0, scalar (specieThermo<thermo>::*F)(const scalar) const, scalar (specieThermo<thermo>::*dFdT)(const scalar) const) const
    in file /opt/foam/foam-extend-4.0/src/thermophysicalModels/specie/lnInclude/specieThermoI.H at line 72
    Maximum number of iterations exceeded.  T0 = 7540.98 F = 5.55963e+06 dFdT = 1007

    From function specieThermo<thermo>::T(scalar f, scalar T0, scalar (specieThermo<thermo>::*F)(const scalar) const, scalar (specieThermo<thermo>::*dFdT)(const scalar) const) const
    in file /opt/foam/foam-extend-4.0/src/thermophysicalModels/specie/lnInclude/specieThermoI.H at line 72
    Maximum number of iterations exceeded.  T0 = 7717.48 F = 5.73736e+06 dFdT = 1007
bounding rho, min: -3.93469e+10 max: 5.60833e+10 average: 358.985
new min: 0.001
new max: 10000
bounding p, min: 474.6 max: 2.87699e+10 average: 2.58633e+08
new max: 1e+07
diagonal:  Solving for rho, Initial residual = 0, Final residual = 0, No Iterations 0
diagonal:  Solving for rhoUx, Initial residual = 0, Final residual = 0, No Iterations 0
diagonal:  Solving for rhoUy, Initial residual = 0, Final residual = 0, No Iterations 0
diagonal:  Solving for rhoE, Initial residual = 0, Final residual = 0, No Iterations 0
bounding h, min: -4.00954e+20 max: 1.24499e+16 average: -1.17741e+18
new min: 1.007
new max: 1.007e+07

    From function specieThermo<thermo>::T(scalar f, scalar T0, scalar (specieThermo<thermo>::*F)(const scalar) const, scalar (specieThermo<thermo>::*dFdT)(const scalar) const) const
    in file /opt/foam/foam-extend-4.0/src/thermophysicalModels/specie/lnInclude/specieThermoI.H at line 72
    Maximum number of iterations exceeded.  T0 = 4209.08 F = 2.2044e+06 dFdT = 1007

    From function specieThermo<thermo>::T(scalar f, scalar T0, scalar (specieThermo<thermo>::*F)(const scalar) const, scalar (specieThermo<thermo>::*dFdT)(const scalar) const) const
    in file /opt/foam/foam-extend-4.0/src/thermophysicalModels/specie/lnInclude/specieThermoI.H at line 72
    Maximum number of iterations exceeded.  T0 = 10000 F = 8.03586e+06 dFdT = 1007

    From function specieThermo<thermo>::T(scalar f, scalar T0, scalar (specieThermo<thermo>::*F)(const scalar) const, scalar (specieThermo<thermo>::*dFdT)(const scalar) const) const
    in file /opt/foam/foam-extend-4.0/src/thermophysicalModels/specie/lnInclude/specieThermoI.H at line 72
    Maximum number of iterations exceeded.  T0 = 7540.98 F = 5.55963e+06 dFdT = 1007

    From function specieThermo<thermo>::T(scalar f, scalar T0, scalar (specieThermo<thermo>::*F)(const scalar) const, scalar (specieThermo<thermo>::*dFdT)(const scalar) const) const
    in file /opt/foam/foam-extend-4.0/src/thermophysicalModels/specie/lnInclude/specieThermoI.H at line 72
    Maximum number of iterations exceeded.  T0 = 7540.98 F = 5.55963e+06 dFdT = 1007

    From function specieThermo<thermo>::T(scalar f, scalar T0, scalar (specieThermo<thermo>::*F)(const scalar) const, scalar (specieThermo<thermo>::*dFdT)(const scalar) const) const
    in file /opt/foam/foam-extend-4.0/src/thermophysicalModels/specie/lnInclude/specieThermoI.H at line 72
    Maximum number of iterations exceeded.  T0 = 10000 F = 8.03586e+06 dFdT = 1007

    From function specieThermo<thermo>::T(scalar f, scalar T0, scalar (specieThermo<thermo>::*F)(const scalar) const, scalar (specieThermo<thermo>::*dFdT)(const scalar) const) const
    in file /opt/foam/foam-extend-4.0/src/thermophysicalModels/specie/lnInclude/specieThermoI.H at line 72
    Maximum number of iterations exceeded.  T0 = 7540.98 F = 5.55963e+06 dFdT = 1007

    From function specieThermo<thermo>::T(scalar f, scalar T0, scalar (specieThermo<thermo>::*F)(const scalar) const, scalar (specieThermo<thermo>::*dFdT)(const scalar) const) const
    in file /opt/foam/foam-extend-4.0/src/thermophysicalModels/specie/lnInclude/specieThermoI.H at line 72
    Maximum number of iterations exceeded.  T0 = 10000 F = 8.03586e+06 dFdT = 1007

    From function specieThermo<thermo>::T(scalar f, scalar T0, scalar (specieThermo<thermo>::*F)(const scalar) const, scalar (specieThermo<thermo>::*dFdT)(const scalar) const) const
    in file /opt/foam/foam-extend-4.0/src/thermophysicalModels/specie/lnInclude/specieThermoI.H at line 72
    Maximum number of iterations exceeded.  T0 = 7540.98 F = 5.55963e+06 dFdT = 1007

    From function specieThermo<thermo>::T(scalar f, scalar T0, scalar (specieThermo<thermo>::*F)(const scalar) const, scalar (specieThermo<thermo>::*dFdT)(const scalar) const) const
    in file /opt/foam/foam-extend-4.0/src/thermophysicalModels/specie/lnInclude/specieThermoI.H at line 72
    Maximum number of iterations exceeded.  T0 = 4209.08 F = 2.2044e+06 dFdT = 1007

    From function specieThermo<thermo>::T(scalar f, scalar T0, scalar (specieThermo<thermo>::*F)(const scalar) const, scalar (specieThermo<thermo>::*dFdT)(const scalar) const) const
    in file /opt/foam/foam-extend-4.0/src/thermophysicalModels/specie/lnInclude/specieThermoI.H at line 72
    Maximum number of iterations exceeded.  T0 = 10000 F = 8.03586e+06 dFdT = 1007

    From function specieThermo<thermo>::T(scalar f, scalar T0, scalar (specieThermo<thermo>::*F)(const scalar) const, scalar (specieThermo<thermo>::*dFdT)(const scalar) const) const
    in file /opt/foam/foam-extend-4.0/src/thermophysicalModels/specie/lnInclude/specieThermoI.H at line 72
    Maximum number of iterations exceeded.  T0 = 7540.98 F = 5.55963e+06 dFdT = 1007

    From function specieThermo<thermo>::T(scalar f, scalar T0, scalar (specieThermo<thermo>::*F)(const scalar) const, scalar (specieThermo<thermo>::*dFdT)(const scalar) const) const
    in file /opt/foam/foam-extend-4.0/src/thermophysicalModels/specie/lnInclude/specieThermoI.H at line 72
    Maximum number of iterations exceeded.  T0 = 7540.98 F = 5.55963e+06 dFdT = 1007

    From function specieThermo<thermo>::T(scalar f, scalar T0, scalar (specieThermo<thermo>::*F)(const scalar) const, scalar (specieThermo<thermo>::*dFdT)(const scalar) const) const
    in file /opt/foam/foam-extend-4.0/src/thermophysicalModels/specie/lnInclude/specieThermoI.H at line 72
    Maximum number of iterations exceeded.  T0 = 10000 F = 8.03586e+06 dFdT = 1007

    From function specieThermo<thermo>::T(scalar f, scalar T0, scalar (specieThermo<thermo>::*F)(const scalar) const, scalar (specieThermo<thermo>::*dFdT)(const scalar) const) const
    in file /opt/foam/foam-extend-4.0/src/thermophysicalModels/specie/lnInclude/specieThermoI.H at line 72
    Maximum number of iterations exceeded.  T0 = 7540.98 F = 5.55963e+06 dFdT = 1007

    From function specieThermo<thermo>::T(scalar f, scalar T0, scalar (specieThermo<thermo>::*F)(const scalar) const, scalar (specieThermo<thermo>::*dFdT)(const scalar) const) const
    in file /opt/foam/foam-extend-4.0/src/thermophysicalModels/specie/lnInclude/specieThermoI.H at line 72
    Maximum number of iterations exceeded.  T0 = 10000 F = 8.03586e+06 dFdT = 1007

    From function specieThermo<thermo>::T(scalar f, scalar T0, scalar (specieThermo<thermo>::*F)(const scalar) const, scalar (specieThermo<thermo>::*dFdT)(const scalar) const) const
    in file /opt/foam/foam-extend-4.0/src/thermophysicalModels/specie/lnInclude/specieThermoI.H at line 72
    Maximum number of iterations exceeded.  T0 = 7540.98 F = 5.55963e+06 dFdT = 1007

    From function specieThermo<thermo>::T(scalar f, scalar T0, scalar (specieThermo<thermo>::*F)(const scalar) const, scalar (specieThermo<thermo>::*dFdT)(const scalar) const) const
    in file /opt/foam/foam-extend-4.0/src/thermophysicalModels/specie/lnInclude/specieThermoI.H at line 72
    Maximum number of iterations exceeded.  T0 = 4209.08 F = 2.2044e+06 dFdT = 1007

    From function specieThermo<thermo>::T(scalar f, scalar T0, scalar (specieThermo<thermo>::*F)(const scalar) const, scalar (specieThermo<thermo>::*dFdT)(const scalar) const) const
    in file /opt/foam/foam-extend-4.0/src/thermophysicalModels/specie/lnInclude/specieThermoI.H at line 72
    Maximum number of iterations exceeded.  T0 = 10000 F = 8.03586e+06 dFdT = 1007

    From function specieThermo<thermo>::T(scalar f, scalar T0, scalar (specieThermo<thermo>::*F)(const scalar) const, scalar (specieThermo<thermo>::*dFdT)(const scalar) const) const
    in file /opt/foam/foam-extend-4.0/src/thermophysicalModels/specie/lnInclude/specieThermoI.H at line 72
    Maximum number of iterations exceeded.  T0 = 7540.98 F = 5.55963e+06 dFdT = 1007

    From function specieThermo<thermo>::T(scalar f, scalar T0, scalar (specieThermo<thermo>::*F)(const scalar) const, scalar (specieThermo<thermo>::*dFdT)(const scalar) const) const
    in file /opt/foam/foam-extend-4.0/src/thermophysicalModels/specie/lnInclude/specieThermoI.H at line 72
    Maximum number of iterations exceeded.  T0 = 7540.98 F = 5.55963e+06 dFdT = 1007

    From function specieThermo<thermo>::T(scalar f, scalar T0, scalar (specieThermo<thermo>::*F)(const scalar) const, scalar (specieThermo<thermo>::*dFdT)(const scalar) const) const
    in file /opt/foam/foam-extend-4.0/src/thermophysicalModels/specie/lnInclude/specieThermoI.H at line 72
    Maximum number of iterations exceeded.  T0 = 10000 F = 8.03586e+06 dFdT = 1007

    From function specieThermo<thermo>::T(scalar f, scalar T0, scalar (specieThermo<thermo>::*F)(const scalar) const, scalar (specieThermo<thermo>::*dFdT)(const scalar) const) const
    in file /opt/foam/foam-extend-4.0/src/thermophysicalModels/specie/lnInclude/specieThermoI.H at line 72
    Maximum number of iterations exceeded.  T0 = 7540.98 F = 5.55963e+06 dFdT = 1007

    From function specieThermo<thermo>::T(scalar f, scalar T0, scalar (specieThermo<thermo>::*F)(const scalar) const, scalar (specieThermo<thermo>::*dFdT)(const scalar) const) const
    in file /opt/foam/foam-extend-4.0/src/thermophysicalModels/specie/lnInclude/specieThermoI.H at line 72
    Maximum number of iterations exceeded.  T0 = 10000 F = 8.03586e+06 dFdT = 1007

[...]
    in file /opt/foam/foam-extend-4.0/src/thermophysicalModels/specie/lnInclude/specieThermoI.H at line 72
    Maximum number of iterations exceeded.  T0 = 10000 F = 8.03586e+06 dFdT = 1007

    From function specieThermo<thermo>::T(scalar f, scalar T0, scalar (specieThermo<thermo>::*F)(const scalar) const, scalar (specieThermo<thermo>::*dFdT)(const scalar) const) const
    in file /opt/foam/foam-extend-4.0/src/thermophysicalModels/specie/lnInclude/specieThermoI.H at line 72
    Maximum number of iterations exceeded.  T0 = 7540.98 F = 5.55963e+06 dFdT = 1007

    From function specieThermo<thermo>::T(scalar f, scalar T0, scalar (specieThermo<thermo>::*F)(const scalar) const, scalar (specieThermo<thermo>::*dFdT)(const scalar) const) const
    in file /opt/foam/foam-extend-4.0/src/thermophysicalModels/specie/lnInclude/specieThermoI.H at line 72
    Maximum number of iterations exceeded.  T0 = 7540.98 F = 5.55963e+06 dFdT = 1007

    From function specieThermo<thermo>::T(scalar f, scalar T0, scalar (specieThermo<thermo>::*F)(const scalar) const, scalar (specieThermo<thermo>::*dFdT)(const scalar) const) const
    in file /opt/foam/foam-extend-4.0/src/thermophysicalModels/specie/lnInclude/specieThermoI.H at line 72
    Maximum number of iterations exceeded.  T0 = 10000 F = 8.03586e+06 dFdT = 1007

    From function specieThermo<thermo>::T(scalar f, scalar T0, scalar (specieThermo<thermo>::*F)(const scalar) const, scalar (specieThermo<thermo>::*dFdT)(const scalar) const) const
    in file /opt/foam/foam-extend-4.0/src/thermophysicalModels/specie/lnInclude/specieThermoI.H at line 72
    Maximum number of iterations exceeded.  T0 = 7540.98 F = 5.55963e+06 dFdT = 1007

    From function specieThermo<thermo>::T(scalar f, scalar T0, scalar (specieThermo<thermo>::*F)(const scalar) const, scalar (specieThermo<thermo>::*dFdT)(const scalar) const) const
    in file /opt/foam/foam-extend-4.0/src/thermophysicalModels/specie/lnInclude/specieThermoI.H at line 72
    Maximum number of iterations exceeded.  T0 = 5918.59 F = 3.92588e+06 dFdT = 1007

    From function specieThermo<thermo>::T(scalar f, scalar T0, scalar (specieThermo<thermo>::*F)(const scalar) const, scalar (specieThermo<thermo>::*dFdT)(const scalar) const) const
    in file /opt/foam/foam-extend-4.0/src/thermophysicalModels/specie/lnInclude/specieThermoI.H at line 72
    Maximum number of iterations exceeded.  T0 = 10000 F = 8.03586e+06 dFdT = 1007

    From function specieThermo<thermo>::T(scalar f, scalar T0, scalar (specieThermo<thermo>::*F)(const scalar) const, scalar (specieThermo<thermo>::*dFdT)(const scalar) const) const
    in file /opt/foam/foam-extend-4.0/src/thermophysicalModels/specie/lnInclude/specieThermoI.H at line 72
    Maximum number of iterations exceeded.  T0 = 7540.98 F = 5.55963e+06 dFdT = 1007

    From function specieThermo<thermo>::T(scalar f, scalar T0, scalar (specieThermo<thermo>::*F)(const scalar) const, scalar (specieThermo<thermo>::*dFdT)(const scalar) const) const
    in file /opt/foam/foam-extend-4.0/src/thermophysicalModels/specie/lnInclude/specieThermoI.H at line 72
    Maximum number of iterations exceeded.  T0 = 7540.98 F = 5.55963e+06 dFdT = 1007

    From function specieThermo<thermo>::T(scalar f, scalar T0, scalar (specieThermo<thermo>::*F)(const scalar) const, scalar (specieThermo<thermo>::*dFdT)(const scalar) const) const
    in file /opt/foam/foam-extend-4.0/src/thermophysicalModels/specie/lnInclude/specieThermoI.H at line 72
    Maximum number of iterations exceeded.  T0 = 10000 F = 8.03586e+06 dFdT = 1007

    From function specieThermo<thermo>::T(scalar f, scalar T0, scalar (specieThermo<thermo>::*F)(const scalar) const, scalar (specieThermo<thermo>::*dFdT)(const scalar) const) const
    in file /opt/foam/foam-extend-4.0/src/thermophysicalModels/specie/lnInclude/specieThermoI.H at line 72
    Maximum number of iterations exceeded.  T0 = 7540.98 F = 5.55963e+06 dFdT = 1007

    From function specieThermo<thermo>::T(scalar f, scalar T0, scalar (specieThermo<thermo>::*F)(const scalar) const, scalar (specieThermo<thermo>::*dFdT)(const scalar) const) const
    in file /opt/foam/foam-extend-4.0/src/thermophysicalModels/specie/lnInclude/specieThermoI.H at line 72
    Maximum number of iterations exceeded.  T0 = 7540.98 F = 5.55963e+06 dFdT = 1007

    From function specieThermo<thermo>::T(scalar f, scalar T0, scalar (specieThermo<thermo>::*F)(const scalar) const, scalar (specieThermo<thermo>::*dFdT)(const scalar) const) const
    in file /opt/foam/foam-extend-4.0/src/thermophysicalModels/specie/lnInclude/specieThermoI.H at line 72
    Maximum number of iterations exceeded.  T0 = 10000 F = 8.03586e+06 dFdT = 1007

    From function specieThermo<thermo>::T(scalar f, scalar T0, scalar (specieThermo<thermo>::*F)(const scalar) const, scalar (specieThermo<thermo>::*dFdT)(const scalar) const) const
    in file /opt/foam/foam-extend-4.0/src/thermophysicalModels/specie/lnInclude/specieThermoI.H at line 72
    Maximum number of iterations exceeded.  T0 = 10000 F = 8.03586e+06 dFdT = 1007

    From function specieThermo<thermo>::T(scalar f, scalar T0, scalar (specieThermo<thermo>::*F)(const scalar) const, scalar (specieThermo<thermo>::*dFdT)(const scalar) const) const
    in file /opt/foam/foam-extend-4.0/src/thermophysicalModels/specie/lnInclude/specieThermoI.H at line 72
    Maximum number of iterations exceeded.  T0 = 10000 F = 8.03586e+06 dFdT = 1007

    From function specieThermo<thermo>::T(scalar f, scalar T0, scalar (specieThermo<thermo>::*F)(const scalar) const, scalar (specieThermo<thermo>::*dFdT)(const scalar) const) const
    in file /opt/foam/foam-extend-4.0/src/thermophysicalModels/specie/lnInclude/specieThermoI.H at line 72
    Maximum number of iterations exceeded.  T0 = 7540.98 F = 5.55963e+06 dFdT = 1007

    From function specieThermo<thermo>::T(scalar f, scalar T0, scalar (specieThermo<thermo>::*F)(const scalar) const, scalar (specieThermo<thermo>::*dFdT)(const scalar) const) const
    in file /opt/foam/foam-extend-4.0/src/thermophysicalModels/specie/lnInclude/specieThermoI.H at line 72
    Maximum number of iterations exceeded.  T0 = 7540.98 F = 5.55963e+06 dFdT = 1007

    From function specieThermo<thermo>::T(scalar f, scalar T0, scalar (specieThermo<thermo>::*F)(const scalar) const, scalar (specieThermo<thermo>::*dFdT)(const scalar) const) const
    in file /opt/foam/foam-extend-4.0/src/thermophysicalModels/specie/lnInclude/specieThermoI.H at line 72
    Maximum number of iterations exceeded.  T0 = 10000 F = 8.03586e+06 dFdT = 1007

    From function specieThermo<thermo>::T(scalar f, scalar T0, scalar (specieThermo<thermo>::*F)(const scalar) const, scalar (specieThermo<thermo>::*dFdT)(const scalar) const) const
    in file /opt/foam/foam-extend-4.0/src/thermophysicalModels/specie/lnInclude/specieThermoI.H at line 72
    Maximum number of iterations exceeded.  T0 = 10000 F = 8.03586e+06 dFdT = 1007

    From function specieThermo<thermo>::T(scalar f, scalar T0, scalar (specieThermo<thermo>::*F)(const scalar) const, scalar (specieThermo<thermo>::*dFdT)(const scalar) const) const
    in file /opt/foam/foam-extend-4.0/src/thermophysicalModels/specie/lnInclude/specieThermoI.H at line 72
    Maximum number of iterations exceeded.  T0 = 10000 F = 8.03586e+06 dFdT = 1007

    From function specieThermo<thermo>::T(scalar f, scalar T0, scalar (specieThermo<thermo>::*F)(const scalar) const, scalar (specieThermo<thermo>::*dFdT)(const scalar) const) const
    in file /opt/foam/foam-extend-4.0/src/thermophysicalModels/specie/lnInclude/specieThermoI.H at line 72
    Maximum number of iterations exceeded.  T0 = 10000 F = 8.03586e+06 dFdT = 1007

    From function specieThermo<thermo>::T(scalar f, scalar T0, scalar (specieThermo<thermo>::*F)(const scalar) const, scalar (specieThermo<thermo>::*dFdT)(const scalar) const) const
    in file /opt/foam/foam-extend-4.0/src/thermophysicalModels/specie/lnInclude/specieThermoI.H at line 72
    Maximum number of iterations exceeded.  T0 = 7540.98 F = 5.55963e+06 dFdT = 1007

    From function specieThermo<thermo>::T(scalar f, scalar T0, scalar (specieThermo<thermo>::*F)(const scalar) const, scalar (specieThermo<thermo>::*dFdT)(const scalar) const) const
    in file /opt/foam/foam-extend-4.0/src/thermophysicalModels/specie/lnInclude/specieThermoI.H at line 72
    Maximum number of iterations exceeded.  T0 = 7540.98 F = 5.55963e+06 dFdT = 1007

    From function specieThermo<thermo>::T(scalar f, scalar T0, scalar (specieThermo<thermo>::*F)(const scalar) const, scalar (specieThermo<thermo>::*dFdT)(const scalar) const) const
    in file /opt/foam/foam-extend-4.0/src/thermophysicalModels/specie/lnInclude/specieThermoI.H at line 72
    Maximum number of iterations exceeded.  T0 = 10000 F = 8.03586e+06 dFdT = 1007

    From function specieThermo<thermo>::T(scalar f, scalar T0, scalar (specieThermo<thermo>::*F)(const scalar) const, scalar (specieThermo<thermo>::*dFdT)(const scalar) const) const
    in file /opt/foam/foam-extend-4.0/src/thermophysicalModels/specie/lnInclude/specieThermoI.H at line 72
    Maximum number of iterations exceeded.  T0 = 10000 F = 8.03586e+06 dFdT = 1007

    From function specieThermo<thermo>::T(scalar f, scalar T0, scalar (specieThermo<thermo>::*F)(const scalar) const, scalar (specieThermo<thermo>::*dFdT)(const scalar) const) const
    in file /opt/foam/foam-extend-4.0/src/thermophysicalModels/specie/lnInclude/specieThermoI.H at line 72
    Maximum number of iterations exceeded.  T0 = 7540.98 F = 5.55963e+06 dFdT = 1007

    From function specieThermo<thermo>::T(scalar f, scalar T0, scalar (specieThermo<thermo>::*F)(const scalar) const, scalar (specieThermo<thermo>::*dFdT)(const scalar) const) const
    in file /opt/foam/foam-extend-4.0/src/thermophysicalModels/specie/lnInclude/specieThermoI.H at line 72
    Maximum number of iterations exceeded.  T0 = 7540.98 F = 5.55963e+06 dFdT = 1007

    From function specieThermo<thermo>::T(scalar f, scalar T0, scalar (specieThermo<thermo>::*F)(const scalar) const, scalar (specieThermo<thermo>::*dFdT)(const scalar) const) const
    in file /opt/foam/foam-extend-4.0/src/thermophysicalModels/specie/lnInclude/specieThermoI.H at line 72
    Maximum number of iterations exceeded.  T0 = 10000 F = 8.03586e+06 dFdT = 1007

    From function specieThermo<thermo>::T(scalar f, scalar T0, scalar (specieThermo<thermo>::*F)(const scalar) const, scalar (specieThermo<thermo>::*dFdT)(const scalar) const) const
    in file /opt/foam/foam-extend-4.0/src/thermophysicalModels/specie/lnInclude/specieThermoI.H at line 72
    Maximum number of iterations exceeded.  T0 = 7540.98 F = 5.55963e+06 dFdT = 1007

    From function specieThermo<thermo>::T(scalar f, scalar T0, scalar (specieThermo<thermo>::*F)(const scalar) const, scalar (specieThermo<thermo>::*dFdT)(const scalar) const) const
    in file /opt/foam/foam-extend-4.0/src/thermophysicalModels/specie/lnInclude/specieThermoI.H at line 72
    Maximum number of iterations exceeded.  T0 = 5918.59 F = 3.92588e+06 dFdT = 1007

    From function specieThermo<thermo>::T(scalar f, scalar T0, scalar (specieThermo<thermo>::*F)(const scalar) const, scalar (specieThermo<thermo>::*dFdT)(const scalar) const) const
    in file /opt/foam/foam-extend-4.0/src/thermophysicalModels/specie/lnInclude/specieThermoI.H at line 72
    Maximum number of iterations exceeded.  T0 = 10000 F = 8.03586e+06 dFdT = 1007

    From function specieThermo<thermo>::T(scalar f, scalar T0, scalar (specieThermo<thermo>::*F)(const scalar) const, scalar (specieThermo<thermo>::*dFdT)(const scalar) const) const
    in file /opt/foam/foam-extend-4.0/src/thermophysicalModels/specie/lnInclude/specieThermoI.H at line 72
    Maximum number of iterations exceeded.  T0 = 7540.98 F = 5.55963e+06 dFdT = 1007

    From function specieThermo<thermo>::T(scalar f, scalar T0, scalar (specieThermo<thermo>::*F)(const scalar) const, scalar (specieThermo<thermo>::*dFdT)(const scalar) const) const
    in file /opt/foam/foam-extend-4.0/src/thermophysicalModels/specie/lnInclude/specieThermoI.H at line 72
    Maximum number of iterations exceeded.  T0 = 7540.98 F = 5.55963e+06 dFdT = 1007

    From function specieThermo<thermo>::T(scalar f, scalar T0, scalar (specieThermo<thermo>::*F)(const scalar) const, scalar (specieThermo<thermo>::*dFdT)(const scalar) const) const
    in file /opt/foam/foam-extend-4.0/src/thermophysicalModels/specie/lnInclude/specieThermoI.H at line 72
    Maximum number of iterations exceeded.  T0 = 10000 F = 8.03586e+06 dFdT = 1007

    From function specieThermo<thermo>::T(scalar f, scalar T0, scalar (specieThermo<thermo>::*F)(const scalar) const, scalar (specieThermo<thermo>::*dFdT)(const scalar) const) const
    in file /opt/foam/foam-extend-4.0/src/thermophysicalModels/specie/lnInclude/specieThermoI.H at line 72
    Maximum number of iterations exceeded.  T0 = 7540.98 F = 5.55963e+06 dFdT = 1007

    From function specieThermo<thermo>::T(scalar f, scalar T0, scalar (specieThermo<thermo>::*F)(const scalar) const, scalar (specieThermo<thermo>::*dFdT)(const scalar) const) const
    in file /opt/foam/foam-extend-4.0/src/thermophysicalModels/specie/lnInclude/specieThermoI.H at line 72
    Maximum number of iterations exceeded.  T0 = 7540.98 F = 5.55963e+06 dFdT = 1007

    From function specieThermo<thermo>::T(scalar f, scalar T0, scalar (specieThermo<thermo>::*F)(const scalar) const, scalar (specieThermo<thermo>::*dFdT)(const scalar) const) const
    in file /opt/foam/foam-extend-4.0/src/thermophysicalModels/specie/lnInclude/specieThermoI.H at line 72
    Maximum number of iterations exceeded.  T0 = 10000 F = 8.03586e+06 dFdT = 1007

    From function specieThermo<thermo>::T(scalar f, scalar T0, scalar (specieThermo<thermo>::*F)(const scalar) const, scalar (specieThermo<thermo>::*dFdT)(const scalar) const) const
    in file /opt/foam/foam-extend-4.0/src/thermophysicalModels/specie/lnInclude/specieThermoI.H at line 72
    Maximum number of iterations exceeded.  T0 = 10000 F = 8.03586e+06 dFdT = 1007

    From function specieThermo<thermo>::T(scalar f, scalar T0, scalar (specieThermo<thermo>::*F)(const scalar) const, scalar (specieThermo<thermo>::*dFdT)(const scalar) const) const
    in file /opt/foam/foam-extend-4.0/src/thermophysicalModels/specie/lnInclude/specieThermoI.H at line 72
    Maximum number of iterations exceeded.  T0 = 10000 F = 8.03586e+06 dFdT = 1007

    From function specieThermo<thermo>::T(scalar f, scalar T0, scalar (specieThermo<thermo>::*F)(const scalar) const, scalar (specieThermo<thermo>::*dFdT)(const scalar) const) const
    in file /opt/foam/foam-extend-4.0/src/thermophysicalModels/specie/lnInclude/specieThermoI.H at line 72
    Maximum number of iterations exceeded.  T0 = 7540.98 F = 5.55963e+06 dFdT = 1007

    From function specieThermo<thermo>::T(scalar f, scalar T0, scalar (specieThermo<thermo>::*F)(const scalar) const, scalar (specieThermo<thermo>::*dFdT)(const scalar) const) const
    in file /opt/foam/foam-extend-4.0/src/thermophysicalModels/specie/lnInclude/specieThermoI.H at line 72
    Maximum number of iterations exceeded.  T0 = 7540.98 F = 5.55963e+06 dFdT = 1007

    From function specieThermo<thermo>::T(scalar f, scalar T0, scalar (specieThermo<thermo>::*F)(const scalar) const, scalar (specieThermo<thermo>::*dFdT)(const scalar) const) const
    in file /opt/foam/foam-extend-4.0/src/thermophysicalModels/specie/lnInclude/specieThermoI.H at line 72
    Maximum number of iterations exceeded.  T0 = 10000 F = 8.03586e+06 dFdT = 1007

    From function specieThermo<thermo>::T(scalar f, scalar T0, scalar (specieThermo<thermo>::*F)(const scalar) const, scalar (specieThermo<thermo>::*dFdT)(const scalar) const) const
    in file /opt/foam/foam-extend-4.0/src/thermophysicalModels/specie/lnInclude/specieThermoI.H at line 72
    Maximum number of iterations exceeded.  T0 = 10000 F = 8.03586e+06 dFdT = 1007

    From function specieThermo<thermo>::T(scalar f, scalar T0, scalar (specieThermo<thermo>::*F)(const scalar) const, scalar (specieThermo<thermo>::*dFdT)(const scalar) const) const
    in file /opt/foam/foam-extend-4.0/src/thermophysicalModels/specie/lnInclude/specieThermoI.H at line 72
    Maximum number of iterations exceeded.  T0 = 10000 F = 8.03586e+06 dFdT = 1007

    From function specieThermo<thermo>::T(scalar f, scalar T0, scalar (specieThermo<thermo>::*F)(const scalar) const, scalar (specieThermo<thermo>::*dFdT)(const scalar) const) const
    in file /opt/foam/foam-extend-4.0/src/thermophysicalModels/specie/lnInclude/specieThermoI.H at line 72
    Maximum number of iterations exceeded.  T0 = 10000 F = 8.03586e+06 dFdT = 1007

    From function specieThermo<thermo>::T(scalar f, scalar T0, scalar (specieThermo<thermo>::*F)(const scalar) const, scalar (specieThermo<thermo>::*dFdT)(const scalar) const) const
    in file /opt/foam/foam-extend-4.0/src/thermophysicalModels/specie/lnInclude/specieThermoI.H at line 72
    Maximum number of iterations exceeded.  T0 = 7540.98 F = 5.55963e+06 dFdT = 1007

    From function specieThermo<thermo>::T(scalar f, scalar T0, scalar (specieThermo<thermo>::*F)(const scalar) const, scalar (specieThermo<thermo>::*dFdT)(const scalar) const) const
    in file /opt/foam/foam-extend-4.0/src/thermophysicalModels/specie/lnInclude/specieThermoI.H at line 72
    Maximum number of iterations exceeded.  T0 = 7540.98 F = 5.55963e+06 dFdT = 1007

    From function specieThermo<thermo>::T(scalar f, scalar T0, scalar (specieThermo<thermo>::*F)(const scalar) const, scalar (specieThermo<thermo>::*dFdT)(const scalar) const) const
    in file /opt/foam/foam-extend-4.0/src/thermophysicalModels/specie/lnInclude/specieThermoI.H at line 72
    Maximum number of iterations exceeded.  T0 = 10000 F = 8.03586e+06 dFdT = 1007

    From function specieThermo<thermo>::T(scalar f, scalar T0, scalar (specieThermo<thermo>::*F)(const scalar) const, scalar (specieThermo<thermo>::*dFdT)(const scalar) const) const
    in file /opt/foam/foam-extend-4.0/src/thermophysicalModels/specie/lnInclude/specieThermoI.H at line 72
    Maximum number of iterations exceeded.  T0 = 10000 F = 8.03586e+06 dFdT = 1007

    From function specieThermo<thermo>::T(scalar f, scalar T0, scalar (specieThermo<thermo>::*F)(const scalar) const, scalar (specieThermo<thermo>::*dFdT)(const scalar) const) const
    in file /opt/foam/foam-extend-4.0/src/thermophysicalModels/specie/lnInclude/specieThermoI.H at line 72
    Maximum number of iterations exceeded.  T0 = 7540.98 F = 5.55963e+06 dFdT = 1007

    From function specieThermo<thermo>::T(scalar f, scalar T0, scalar (specieThermo<thermo>::*F)(const scalar) const, scalar (specieThermo<thermo>::*dFdT)(const scalar) const) const
    in file /opt/foam/foam-extend-4.0/src/thermophysicalModels/specie/lnInclude/specieThermoI.H at line 72
    Maximum number of iterations exceeded.  T0 = 7540.98 F = 5.55963e+06 dFdT = 1007

    From function specieThermo<thermo>::T(scalar f, scalar T0, scalar (specieThermo<thermo>::*F)(const scalar) const, scalar (specieThermo<thermo>::*dFdT)(const scalar) const) const
    in file /opt/foam/foam-extend-4.0/src/thermophysicalModels/specie/lnInclude/specieThermoI.H at line 72
    Maximum number of iterations exceeded.  T0 = 10000 F = 8.03586e+06 dFdT = 1007

    From function specieThermo<thermo>::T(scalar f, scalar T0, scalar (specieThermo<thermo>::*F)(const scalar) const, scalar (specieThermo<thermo>::*dFdT)(const scalar) const) const
    in file /opt/foam/foam-extend-4.0/src/thermophysicalModels/specie/lnInclude/specieThermoI.H at line 72
    Maximum number of iterations exceeded.  T0 = 7540.98 F = 5.55963e+06 dFdT = 1007
bounding rho, min: -4.41715e+96 max: 2.28863e+96 average: 2.62144e+86
new min: 0.001
new max: 10000
bounding p, min: 0.000287699 max: 2.87699e+10 average: 8.31369e+08
new min: 0.001
new max: 1e+07
