/*---------------------------------------------------------------------------*\
| =========                 |                                                 |
| \\      /  F ield         | foam-extend: Open Source CFD                    |
|  \\    /   O peration     | Version:     4.0                                |
|   \\  /    A nd           | Web:         http://www.foam-extend.org         |
|    \\/     M anipulation  | For copyright notice see file Copyright         |
\*---------------------------------------------------------------------------*/
Build    : 4.0-268bb07d15d8
Exec     : dbnsFoam
Date     : Apr 26 2022
Time     : 12:58:03
Host     : node358.pi.sjtu.edu.cn
PID      : 1649207
CtrlDict : "/dssg/home/acct-medgm/medgm/06-DLR-buffet/Workspace/test_cases/03-dbns-shocktube/00-test-590-roe-firstOrder/system/controlDict"
Case     : /dssg/home/acct-medgm/medgm/06-DLR-buffet/Workspace/test_cases/03-dbns-shocktube/00-test-590-roe-firstOrder
nProcs   : 1
SigFpe   : Enabling floating point exception trapping (FOAM_SIGFPE).

// * * * * * * * * * * * * * * * * * * * * * * * * * * * * * * * * * * * * * //
Create time

Create mesh for time = 0

Reading thermophysical properties

Selecting thermodynamics package hPsiThermo<pureMixture<constTransport<specieThermo<hConstThermo<perfectGas>>>>>
Reading field rho

Reading field U

Selecting numericFlux roeFluxfirstOrderLimiter

Starting time loop

Courant Number mean: 0 max: 0 velocity magnitude: 0

 Time = 1e-05
diagonal:  Solving for rho, Initial residual = 0, Final residual = 0, No Iterations 0
diagonal:  Solving for rhoUx, Initial residual = 0, Final residual = 0, No Iterations 0
diagonal:  Solving for rhoUy, Initial residual = 0, Final residual = 0, No Iterations 0
diagonal:  Solving for rhoE, Initial residual = 0, Final residual = 0, No Iterations 0
diagonal:  Solving for rho, Initial residual = 0, Final residual = 0, No Iterations 0
diagonal:  Solving for rhoUx, Initial residual = 0, Final residual = 0, No Iterations 0
diagonal:  Solving for rhoUy, Initial residual = 0, Final residual = 0, No Iterations 0
diagonal:  Solving for rhoE, Initial residual = 0, Final residual = 0, No Iterations 0
diagonal:  Solving for rho, Initial residual = 0, Final residual = 0, No Iterations 0
diagonal:  Solving for rhoUx, Initial residual = 0, Final residual = 0, No Iterations 0
diagonal:  Solving for rhoUy, Initial residual = 0, Final residual = 0, No Iterations 0
diagonal:  Solving for rhoE, Initial residual = 0, Final residual = 0, No Iterations 0
diagonal:  Solving for rho, Initial residual = 0, Final residual = 0, No Iterations 0
diagonal:  Solving for rhoUx, Initial residual = 0, Final residual = 0, No Iterations 0
diagonal:  Solving for rhoUy, Initial residual = 0, Final residual = 0, No Iterations 0
diagonal:  Solving for rhoE, Initial residual = 0, Final residual = 0, No Iterations 0
    ExecutionTime = 0.02 s

Courant Number mean: 0.00390375 max: 0.740103 velocity magnitude: 125.441

 Time = 2e-05
diagonal:  Solving for rho, Initial residual = 0, Final residual = 0, No Iterations 0
diagonal:  Solving for rhoUx, Initial residual = 0, Final residual = 0, No Iterations 0
diagonal:  Solving for rhoUy, Initial residual = 0, Final residual = 0, No Iterations 0
diagonal:  Solving for rhoE, Initial residual = 0, Final residual = 0, No Iterations 0
diagonal:  Solving for rho, Initial residual = 0, Final residual = 0, No Iterations 0
diagonal:  Solving for rhoUx, Initial residual = 0, Final residual = 0, No Iterations 0
diagonal:  Solving for rhoUy, Initial residual = 0, Final residual = 0, No Iterations 0
diagonal:  Solving for rhoE, Initial residual = 0, Final residual = 0, No Iterations 0
diagonal:  Solving for rho, Initial residual = 0, Final residual = 0, No Iterations 0
diagonal:  Solving for rhoUx, Initial residual = 0, Final residual = 0, No Iterations 0
diagonal:  Solving for rhoUy, Initial residual = 0, Final residual = 0, No Iterations 0
diagonal:  Solving for rhoE, Initial residual = 0, Final residual = 0, No Iterations 0
diagonal:  Solving for rho, Initial residual = 0, Final residual = 0, No Iterations 0
diagonal:  Solving for rhoUx, Initial residual = 0, Final residual = 0, No Iterations 0
diagonal:  Solving for rhoUy, Initial residual = 0, Final residual = 0, No Iterations 0
diagonal:  Solving for rhoE, Initial residual = 0, Final residual = 0, No Iterations 0
    ExecutionTime = 0.02 s

Courant Number mean: 0.009079 max: 0.772417 velocity magnitude: 130.918

 Time = 3e-05
diagonal:  Solving for rho, Initial residual = 0, Final residual = 0, No Iterations 0
diagonal:  Solving for rhoUx, Initial residual = 0, Final residual = 0, No Iterations 0
diagonal:  Solving for rhoUy, Initial residual = 0, Final residual = 0, No Iterations 0
diagonal:  Solving for rhoE, Initial residual = 0, Final residual = 0, No Iterations 0
diagonal:  Solving for rho, Initial residual = 0, Final residual = 0, No Iterations 0
diagonal:  Solving for rhoUx, Initial residual = 0, Final residual = 0, No Iterations 0
diagonal:  Solving for rhoUy, Initial residual = 0, Final residual = 0, No Iterations 0
diagonal:  Solving for rhoE, Initial residual = 0, Final residual = 0, No Iterations 0
diagonal:  Solving for rho, Initial residual = 0, Final residual = 0, No Iterations 0
diagonal:  Solving for rhoUx, Initial residual = 0, Final residual = 0, No Iterations 0
diagonal:  Solving for rhoUy, Initial residual = 0, Final residual = 0, No Iterations 0
diagonal:  Solving for rhoE, Initial residual = 0, Final residual = 0, No Iterations 0
diagonal:  Solving for rho, Initial residual = 0, Final residual = 0, No Iterations 0
diagonal:  Solving for rhoUx, Initial residual = 0, Final residual = 0, No Iterations 0
diagonal:  Solving for rhoUy, Initial residual = 0, Final residual = 0, No Iterations 0
diagonal:  Solving for rhoE, Initial residual = 0, Final residual = 0, No Iterations 0
    ExecutionTime = 0.03 s

Courant Number mean: 0.014248 max: 0.781835 velocity magnitude: 132.514

 Time = 4e-05
diagonal:  Solving for rho, Initial residual = 0, Final residual = 0, No Iterations 0
diagonal:  Solving for rhoUx, Initial residual = 0, Final residual = 0, No Iterations 0
diagonal:  Solving for rhoUy, Initial residual = 0, Final residual = 0, No Iterations 0
diagonal:  Solving for rhoE, Initial residual = 0, Final residual = 0, No Iterations 0
diagonal:  Solving for rho, Initial residual = 0, Final residual = 0, No Iterations 0
diagonal:  Solving for rhoUx, Initial residual = 0, Final residual = 0, No Iterations 0
diagonal:  Solving for rhoUy, Initial residual = 0, Final residual = 0, No Iterations 0
diagonal:  Solving for rhoE, Initial residual = 0, Final residual = 0, No Iterations 0
diagonal:  Solving for rho, Initial residual = 0, Final residual = 0, No Iterations 0
diagonal:  Solving for rhoUx, Initial residual = 0, Final residual = 0, No Iterations 0
diagonal:  Solving for rhoUy, Initial residual = 0, Final residual = 0, No Iterations 0
diagonal:  Solving for rhoE, Initial residual = 0, Final residual = 0, No Iterations 0
diagonal:  Solving for rho, Initial residual = 0, Final residual = 0, No Iterations 0
diagonal:  Solving for rhoUx, Initial residual = 0, Final residual = 0, No Iterations 0
diagonal:  Solving for rhoUy, Initial residual = 0, Final residual = 0, No Iterations 0
diagonal:  Solving for rhoE, Initial residual = 0, Final residual = 0, No Iterations 0
    ExecutionTime = 0.04 s

Courant Number mean: 0.0194149 max: 0.778842 velocity magnitude: 132.007

 Time = 5e-05
diagonal:  Solving for rho, Initial residual = 0, Final residual = 0, No Iterations 0
diagonal:  Solving for rhoUx, Initial residual = 0, Final residual = 0, No Iterations 0
diagonal:  Solving for rhoUy, Initial residual = 0, Final residual = 0, No Iterations 0
diagonal:  Solving for rhoE, Initial residual = 0, Final residual = 0, No Iterations 0
diagonal:  Solving for rho, Initial residual = 0, Final residual = 0, No Iterations 0
diagonal:  Solving for rhoUx, Initial residual = 0, Final residual = 0, No Iterations 0
diagonal:  Solving for rhoUy, Initial residual = 0, Final residual = 0, No Iterations 0
diagonal:  Solving for rhoE, Initial residual = 0, Final residual = 0, No Iterations 0
diagonal:  Solving for rho, Initial residual = 0, Final residual = 0, No Iterations 0
diagonal:  Solving for rhoUx, Initial residual = 0, Final residual = 0, No Iterations 0
diagonal:  Solving for rhoUy, Initial residual = 0, Final residual = 0, No Iterations 0
diagonal:  Solving for rhoE, Initial residual = 0, Final residual = 0, No Iterations 0
diagonal:  Solving for rho, Initial residual = 0, Final residual = 0, No Iterations 0
diagonal:  Solving for rhoUx, Initial residual = 0, Final residual = 0, No Iterations 0
diagonal:  Solving for rhoUy, Initial residual = 0, Final residual = 0, No Iterations 0
diagonal:  Solving for rhoE, Initial residual = 0, Final residual = 0, No Iterations 0
    ExecutionTime = 0.05 s

Courant Number mean: 0.0245818 max: 0.777539 velocity magnitude: 131.786

 Time = 6e-05
diagonal:  Solving for rho, Initial residual = 0, Final residual = 0, No Iterations 0
diagonal:  Solving for rhoUx, Initial residual = 0, Final residual = 0, No Iterations 0
diagonal:  Solving for rhoUy, Initial residual = 0, Final residual = 0, No Iterations 0
diagonal:  Solving for rhoE, Initial residual = 0, Final residual = 0, No Iterations 0
diagonal:  Solving for rho, Initial residual = 0, Final residual = 0, No Iterations 0
diagonal:  Solving for rhoUx, Initial residual = 0, Final residual = 0, No Iterations 0
diagonal:  Solving for rhoUy, Initial residual = 0, Final residual = 0, No Iterations 0
diagonal:  Solving for rhoE, Initial residual = 0, Final residual = 0, No Iterations 0
diagonal:  Solving for rho, Initial residual = 0, Final residual = 0, No Iterations 0
diagonal:  Solving for rhoUx, Initial residual = 0, Final residual = 0, No Iterations 0
diagonal:  Solving for rhoUy, Initial residual = 0, Final residual = 0, No Iterations 0
diagonal:  Solving for rhoE, Initial residual = 0, Final residual = 0, No Iterations 0
diagonal:  Solving for rho, Initial residual = 0, Final residual = 0, No Iterations 0
diagonal:  Solving for rhoUx, Initial residual = 0, Final residual = 0, No Iterations 0
diagonal:  Solving for rhoUy, Initial residual = 0, Final residual = 0, No Iterations 0
diagonal:  Solving for rhoE, Initial residual = 0, Final residual = 0, No Iterations 0
    ExecutionTime = 0.06 s

Courant Number mean: 0.0297484 max: 0.775965 velocity magnitude: 131.52

 Time = 7e-05
diagonal:  Solving for rho, Initial residual = 0, Final residual = 0, No Iterations 0
diagonal:  Solving for rhoUx, Initial residual = 0, Final residual = 0, No Iterations 0
diagonal:  Solving for rhoUy, Initial residual = 0, Final residual = 0, No Iterations 0
diagonal:  Solving for rhoE, Initial residual = 0, Final residual = 0, No Iterations 0
diagonal:  Solving for rho, Initial residual = 0, Final residual = 0, No Iterations 0
diagonal:  Solving for rhoUx, Initial residual = 0, Final residual = 0, No Iterations 0
diagonal:  Solving for rhoUy, Initial residual = 0, Final residual = 0, No Iterations 0
diagonal:  Solving for rhoE, Initial residual = 0, Final residual = 0, No Iterations 0
diagonal:  Solving for rho, Initial residual = 0, Final residual = 0, No Iterations 0
diagonal:  Solving for rhoUx, Initial residual = 0, Final residual = 0, No Iterations 0
diagonal:  Solving for rhoUy, Initial residual = 0, Final residual = 0, No Iterations 0
diagonal:  Solving for rhoE, Initial residual = 0, Final residual = 0, No Iterations 0
diagonal:  Solving for rho, Initial residual = 0, Final residual = 0, No Iterations 0
diagonal:  Solving for rhoUx, Initial residual = 0, Final residual = 0, No Iterations 0
diagonal:  Solving for rhoUy, Initial residual = 0, Final residual = 0, No Iterations 0
diagonal:  Solving for rhoE, Initial residual = 0, Final residual = 0, No Iterations 0
    ExecutionTime = 0.07 s

Courant Number mean: 0.0349145 max: 0.77495 velocity magnitude: 131.347

 Time = 8e-05
diagonal:  Solving for rho, Initial residual = 0, Final residual = 0, No Iterations 0
diagonal:  Solving for rhoUx, Initial residual = 0, Final residual = 0, No Iterations 0
diagonal:  Solving for rhoUy, Initial residual = 0, Final residual = 0, No Iterations 0
diagonal:  Solving for rhoE, Initial residual = 0, Final residual = 0, No Iterations 0
diagonal:  Solving for rho, Initial residual = 0, Final residual = 0, No Iterations 0
diagonal:  Solving for rhoUx, Initial residual = 0, Final residual = 0, No Iterations 0
diagonal:  Solving for rhoUy, Initial residual = 0, Final residual = 0, No Iterations 0
diagonal:  Solving for rhoE, Initial residual = 0, Final residual = 0, No Iterations 0
diagonal:  Solving for rho, Initial residual = 0, Final residual = 0, No Iterations 0
diagonal:  Solving for rhoUx, Initial residual = 0, Final residual = 0, No Iterations 0
diagonal:  Solving for rhoUy, Initial residual = 0, Final residual = 0, No Iterations 0
diagonal:  Solving for rhoE, Initial residual = 0, Final residual = 0, No Iterations 0
diagonal:  Solving for rho, Initial residual = 0, Final residual = 0, No Iterations 0
diagonal:  Solving for rhoUx, Initial residual = 0, Final residual = 0, No Iterations 0
diagonal:  Solving for rhoUy, Initial residual = 0, Final residual = 0, No Iterations 0
diagonal:  Solving for rhoE, Initial residual = 0, Final residual = 0, No Iterations 0
    ExecutionTime = 0.08 s

Courant Number mean: 0.0400798 max: 0.774343 velocity magnitude: 131.245

 Time = 9e-05
diagonal:  Solving for rho, Initial residual = 0, Final residual = 0, No Iterations 0
diagonal:  Solving for rhoUx, Initial residual = 0, Final residual = 0, No Iterations 0
diagonal:  Solving for rhoUy, Initial residual = 0, Final residual = 0, No Iterations 0
diagonal:  Solving for rhoE, Initial residual = 0, Final residual = 0, No Iterations 0
diagonal:  Solving for rho, Initial residual = 0, Final residual = 0, No Iterations 0
diagonal:  Solving for rhoUx, Initial residual = 0, Final residual = 0, No Iterations 0
diagonal:  Solving for rhoUy, Initial residual = 0, Final residual = 0, No Iterations 0
diagonal:  Solving for rhoE, Initial residual = 0, Final residual = 0, No Iterations 0
diagonal:  Solving for rho, Initial residual = 0, Final residual = 0, No Iterations 0
diagonal:  Solving for rhoUx, Initial residual = 0, Final residual = 0, No Iterations 0
diagonal:  Solving for rhoUy, Initial residual = 0, Final residual = 0, No Iterations 0
diagonal:  Solving for rhoE, Initial residual = 0, Final residual = 0, No Iterations 0
diagonal:  Solving for rho, Initial residual = 0, Final residual = 0, No Iterations 0
diagonal:  Solving for rhoUx, Initial residual = 0, Final residual = 0, No Iterations 0
diagonal:  Solving for rhoUy, Initial residual = 0, Final residual = 0, No Iterations 0
diagonal:  Solving for rhoE, Initial residual = 0, Final residual = 0, No Iterations 0
    ExecutionTime = 0.08 s

Courant Number mean: 0.0452446 max: 0.773769 velocity magnitude: 131.147

 Time = 0.0001
diagonal:  Solving for rho, Initial residual = 0, Final residual = 0, No Iterations 0
diagonal:  Solving for rhoUx, Initial residual = 0, Final residual = 0, No Iterations 0
diagonal:  Solving for rhoUy, Initial residual = 0, Final residual = 0, No Iterations 0
diagonal:  Solving for rhoE, Initial residual = 0, Final residual = 0, No Iterations 0
diagonal:  Solving for rho, Initial residual = 0, Final residual = 0, No Iterations 0
diagonal:  Solving for rhoUx, Initial residual = 0, Final residual = 0, No Iterations 0
diagonal:  Solving for rhoUy, Initial residual = 0, Final residual = 0, No Iterations 0
diagonal:  Solving for rhoE, Initial residual = 0, Final residual = 0, No Iterations 0
diagonal:  Solving for rho, Initial residual = 0, Final residual = 0, No Iterations 0
diagonal:  Solving for rhoUx, Initial residual = 0, Final residual = 0, No Iterations 0
diagonal:  Solving for rhoUy, Initial residual = 0, Final residual = 0, No Iterations 0
diagonal:  Solving for rhoE, Initial residual = 0, Final residual = 0, No Iterations 0
diagonal:  Solving for rho, Initial residual = 0, Final residual = 0, No Iterations 0
diagonal:  Solving for rhoUx, Initial residual = 0, Final residual = 0, No Iterations 0
diagonal:  Solving for rhoUy, Initial residual = 0, Final residual = 0, No Iterations 0
diagonal:  Solving for rhoE, Initial residual = 0, Final residual = 0, No Iterations 0
    ExecutionTime = 0.09 s

Courant Number mean: 0.0504091 max: 0.773215 velocity magnitude: 131.053

 Time = 0.00011
diagonal:  Solving for rho, Initial residual = 0, Final residual = 0, No Iterations 0
diagonal:  Solving for rhoUx, Initial residual = 0, Final residual = 0, No Iterations 0
diagonal:  Solving for rhoUy, Initial residual = 0, Final residual = 0, No Iterations 0
diagonal:  Solving for rhoE, Initial residual = 0, Final residual = 0, No Iterations 0
diagonal:  Solving for rho, Initial residual = 0, Final residual = 0, No Iterations 0
diagonal:  Solving for rhoUx, Initial residual = 0, Final residual = 0, No Iterations 0
diagonal:  Solving for rhoUy, Initial residual = 0, Final residual = 0, No Iterations 0
diagonal:  Solving for rhoE, Initial residual = 0, Final residual = 0, No Iterations 0
diagonal:  Solving for rho, Initial residual = 0, Final residual = 0, No Iterations 0
diagonal:  Solving for rhoUx, Initial residual = 0, Final residual = 0, No Iterations 0
diagonal:  Solving for rhoUy, Initial residual = 0, Final residual = 0, No Iterations 0
diagonal:  Solving for rhoE, Initial residual = 0, Final residual = 0, No Iterations 0
diagonal:  Solving for rho, Initial residual = 0, Final residual = 0, No Iterations 0
diagonal:  Solving for rhoUx, Initial residual = 0, Final residual = 0, No Iterations 0
diagonal:  Solving for rhoUy, Initial residual = 0, Final residual = 0, No Iterations 0
diagonal:  Solving for rhoE, Initial residual = 0, Final residual = 0, No Iterations 0
    ExecutionTime = 0.1 s

Courant Number mean: 0.0555729 max: 0.772872 velocity magnitude: 130.995

 Time = 0.00012
diagonal:  Solving for rho, Initial residual = 0, Final residual = 0, No Iterations 0
diagonal:  Solving for rhoUx, Initial residual = 0, Final residual = 0, No Iterations 0
diagonal:  Solving for rhoUy, Initial residual = 0, Final residual = 0, No Iterations 0
diagonal:  Solving for rhoE, Initial residual = 0, Final residual = 0, No Iterations 0
diagonal:  Solving for rho, Initial residual = 0, Final residual = 0, No Iterations 0
diagonal:  Solving for rhoUx, Initial residual = 0, Final residual = 0, No Iterations 0
diagonal:  Solving for rhoUy, Initial residual = 0, Final residual = 0, No Iterations 0
diagonal:  Solving for rhoE, Initial residual = 0, Final residual = 0, No Iterations 0
diagonal:  Solving for rho, Initial residual = 0, Final residual = 0, No Iterations 0
diagonal:  Solving for rhoUx, Initial residual = 0, Final residual = 0, No Iterations 0
diagonal:  Solving for rhoUy, Initial residual = 0, Final residual = 0, No Iterations 0
diagonal:  Solving for rhoE, Initial residual = 0, Final residual = 0, No Iterations 0
diagonal:  Solving for rho, Initial residual = 0, Final residual = 0, No Iterations 0
diagonal:  Solving for rhoUx, Initial residual = 0, Final residual = 0, No Iterations 0
diagonal:  Solving for rhoUy, Initial residual = 0, Final residual = 0, No Iterations 0
diagonal:  Solving for rhoE, Initial residual = 0, Final residual = 0, No Iterations 0
    ExecutionTime = 0.11 s

Courant Number mean: 0.0607369 max: 0.772573 velocity magnitude: 130.945

 Time = 0.00013
diagonal:  Solving for rho, Initial residual = 0, Final residual = 0, No Iterations 0
diagonal:  Solving for rhoUx, Initial residual = 0, Final residual = 0, No Iterations 0
diagonal:  Solving for rhoUy, Initial residual = 0, Final residual = 0, No Iterations 0
diagonal:  Solving for rhoE, Initial residual = 0, Final residual = 0, No Iterations 0
diagonal:  Solving for rho, Initial residual = 0, Final residual = 0, No Iterations 0
diagonal:  Solving for rhoUx, Initial residual = 0, Final residual = 0, No Iterations 0
diagonal:  Solving for rhoUy, Initial residual = 0, Final residual = 0, No Iterations 0
diagonal:  Solving for rhoE, Initial residual = 0, Final residual = 0, No Iterations 0
diagonal:  Solving for rho, Initial residual = 0, Final residual = 0, No Iterations 0
diagonal:  Solving for rhoUx, Initial residual = 0, Final residual = 0, No Iterations 0
diagonal:  Solving for rhoUy, Initial residual = 0, Final residual = 0, No Iterations 0
diagonal:  Solving for rhoE, Initial residual = 0, Final residual = 0, No Iterations 0
diagonal:  Solving for rho, Initial residual = 0, Final residual = 0, No Iterations 0
diagonal:  Solving for rhoUx, Initial residual = 0, Final residual = 0, No Iterations 0
diagonal:  Solving for rhoUy, Initial residual = 0, Final residual = 0, No Iterations 0
diagonal:  Solving for rhoE, Initial residual = 0, Final residual = 0, No Iterations 0
    ExecutionTime = 0.11 s

Courant Number mean: 0.0659015 max: 0.772267 velocity magnitude: 130.893

 Time = 0.00014
diagonal:  Solving for rho, Initial residual = 0, Final residual = 0, No Iterations 0
diagonal:  Solving for rhoUx, Initial residual = 0, Final residual = 0, No Iterations 0
diagonal:  Solving for rhoUy, Initial residual = 0, Final residual = 0, No Iterations 0
diagonal:  Solving for rhoE, Initial residual = 0, Final residual = 0, No Iterations 0
diagonal:  Solving for rho, Initial residual = 0, Final residual = 0, No Iterations 0
diagonal:  Solving for rhoUx, Initial residual = 0, Final residual = 0, No Iterations 0
diagonal:  Solving for rhoUy, Initial residual = 0, Final residual = 0, No Iterations 0
diagonal:  Solving for rhoE, Initial residual = 0, Final residual = 0, No Iterations 0
diagonal:  Solving for rho, Initial residual = 0, Final residual = 0, No Iterations 0
diagonal:  Solving for rhoUx, Initial residual = 0, Final residual = 0, No Iterations 0
diagonal:  Solving for rhoUy, Initial residual = 0, Final residual = 0, No Iterations 0
diagonal:  Solving for rhoE, Initial residual = 0, Final residual = 0, No Iterations 0
diagonal:  Solving for rho, Initial residual = 0, Final residual = 0, No Iterations 0
diagonal:  Solving for rhoUx, Initial residual = 0, Final residual = 0, No Iterations 0
diagonal:  Solving for rhoUy, Initial residual = 0, Final residual = 0, No Iterations 0
diagonal:  Solving for rhoE, Initial residual = 0, Final residual = 0, No Iterations 0
    ExecutionTime = 0.12 s

Courant Number mean: 0.0710657 max: 0.778508 velocity magnitude: 131.95

 Time = 0.00015
diagonal:  Solving for rho, Initial residual = 0, Final residual = 0, No Iterations 0
diagonal:  Solving for rhoUx, Initial residual = 0, Final residual = 0, No Iterations 0
diagonal:  Solving for rhoUy, Initial residual = 0, Final residual = 0, No Iterations 0
diagonal:  Solving for rhoE, Initial residual = 0, Final residual = 0, No Iterations 0
diagonal:  Solving for rho, Initial residual = 0, Final residual = 0, No Iterations 0
diagonal:  Solving for rhoUx, Initial residual = 0, Final residual = 0, No Iterations 0
diagonal:  Solving for rhoUy, Initial residual = 0, Final residual = 0, No Iterations 0
diagonal:  Solving for rhoE, Initial residual = 0, Final residual = 0, No Iterations 0
diagonal:  Solving for rho, Initial residual = 0, Final residual = 0, No Iterations 0
diagonal:  Solving for rhoUx, Initial residual = 0, Final residual = 0, No Iterations 0
diagonal:  Solving for rhoUy, Initial residual = 0, Final residual = 0, No Iterations 0
diagonal:  Solving for rhoE, Initial residual = 0, Final residual = 0, No Iterations 0
diagonal:  Solving for rho, Initial residual = 0, Final residual = 0, No Iterations 0
diagonal:  Solving for rhoUx, Initial residual = 0, Final residual = 0, No Iterations 0
diagonal:  Solving for rhoUy, Initial residual = 0, Final residual = 0, No Iterations 0
diagonal:  Solving for rhoE, Initial residual = 0, Final residual = 0, No Iterations 0
    ExecutionTime = 0.13 s

Courant Number mean: 0.076232 max: 0.798887 velocity magnitude: 135.405

 Time = 0.00016
diagonal:  Solving for rho, Initial residual = 0, Final residual = 0, No Iterations 0
diagonal:  Solving for rhoUx, Initial residual = 0, Final residual = 0, No Iterations 0
diagonal:  Solving for rhoUy, Initial residual = 0, Final residual = 0, No Iterations 0
diagonal:  Solving for rhoE, Initial residual = 0, Final residual = 0, No Iterations 0
diagonal:  Solving for rho, Initial residual = 0, Final residual = 0, No Iterations 0
diagonal:  Solving for rhoUx, Initial residual = 0, Final residual = 0, No Iterations 0
diagonal:  Solving for rhoUy, Initial residual = 0, Final residual = 0, No Iterations 0
diagonal:  Solving for rhoE, Initial residual = 0, Final residual = 0, No Iterations 0
diagonal:  Solving for rho, Initial residual = 0, Final residual = 0, No Iterations 0
diagonal:  Solving for rhoUx, Initial residual = 0, Final residual = 0, No Iterations 0
diagonal:  Solving for rhoUy, Initial residual = 0, Final residual = 0, No Iterations 0
diagonal:  Solving for rhoE, Initial residual = 0, Final residual = 0, No Iterations 0
diagonal:  Solving for rho, Initial residual = 0, Final residual = 0, No Iterations 0
diagonal:  Solving for rhoUx, Initial residual = 0, Final residual = 0, No Iterations 0
diagonal:  Solving for rhoUy, Initial residual = 0, Final residual = 0, No Iterations 0
diagonal:  Solving for rhoE, Initial residual = 0, Final residual = 0, No Iterations 0
    ExecutionTime = 0.14 s

Courant Number mean: 0.0814034 max: 0.785267 velocity magnitude: 133.096

 Time = 0.00017
diagonal:  Solving for rho, Initial residual = 0, Final residual = 0, No Iterations 0
diagonal:  Solving for rhoUx, Initial residual = 0, Final residual = 0, No Iterations 0
diagonal:  Solving for rhoUy, Initial residual = 0, Final residual = 0, No Iterations 0
diagonal:  Solving for rhoE, Initial residual = 0, Final residual = 0, No Iterations 0
diagonal:  Solving for rho, Initial residual = 0, Final residual = 0, No Iterations 0
diagonal:  Solving for rhoUx, Initial residual = 0, Final residual = 0, No Iterations 0
diagonal:  Solving for rhoUy, Initial residual = 0, Final residual = 0, No Iterations 0
diagonal:  Solving for rhoE, Initial residual = 0, Final residual = 0, No Iterations 0
diagonal:  Solving for rho, Initial residual = 0, Final residual = 0, No Iterations 0
diagonal:  Solving for rhoUx, Initial residual = 0, Final residual = 0, No Iterations 0
diagonal:  Solving for rhoUy, Initial residual = 0, Final residual = 0, No Iterations 0
diagonal:  Solving for rhoE, Initial residual = 0, Final residual = 0, No Iterations 0
diagonal:  Solving for rho, Initial residual = 0, Final residual = 0, No Iterations 0
diagonal:  Solving for rhoUx, Initial residual = 0, Final residual = 0, No Iterations 0
diagonal:  Solving for rhoUy, Initial residual = 0, Final residual = 0, No Iterations 0
diagonal:  Solving for rhoE, Initial residual = 0, Final residual = 0, No Iterations 0
    ExecutionTime = 0.15 s

Courant Number mean: 0.0865739 max: 0.837435 velocity magnitude: 141.938

 Time = 0.00018
diagonal:  Solving for rho, Initial residual = 0, Final residual = 0, No Iterations 0
diagonal:  Solving for rhoUx, Initial residual = 0, Final residual = 0, No Iterations 0
diagonal:  Solving for rhoUy, Initial residual = 0, Final residual = 0, No Iterations 0
diagonal:  Solving for rhoE, Initial residual = 0, Final residual = 0, No Iterations 0
diagonal:  Solving for rho, Initial residual = 0, Final residual = 0, No Iterations 0
diagonal:  Solving for rhoUx, Initial residual = 0, Final residual = 0, No Iterations 0
diagonal:  Solving for rhoUy, Initial residual = 0, Final residual = 0, No Iterations 0
diagonal:  Solving for rhoE, Initial residual = 0, Final residual = 0, No Iterations 0
diagonal:  Solving for rho, Initial residual = 0, Final residual = 0, No Iterations 0
diagonal:  Solving for rhoUx, Initial residual = 0, Final residual = 0, No Iterations 0
diagonal:  Solving for rhoUy, Initial residual = 0, Final residual = 0, No Iterations 0
diagonal:  Solving for rhoE, Initial residual = 0, Final residual = 0, No Iterations 0
diagonal:  Solving for rho, Initial residual = 0, Final residual = 0, No Iterations 0
diagonal:  Solving for rhoUx, Initial residual = 0, Final residual = 0, No Iterations 0
diagonal:  Solving for rhoUy, Initial residual = 0, Final residual = 0, No Iterations 0
diagonal:  Solving for rhoE, Initial residual = 0, Final residual = 0, No Iterations 0
    ExecutionTime = 0.15 s

Courant Number mean: 0.0917515 max: 0.92674 velocity magnitude: 157.074

 Time = 0.00019
diagonal:  Solving for rho, Initial residual = 0, Final residual = 0, No Iterations 0
diagonal:  Solving for rhoUx, Initial residual = 0, Final residual = 0, No Iterations 0
diagonal:  Solving for rhoUy, Initial residual = 0, Final residual = 0, No Iterations 0
diagonal:  Solving for rhoE, Initial residual = 0, Final residual = 0, No Iterations 0
diagonal:  Solving for rho, Initial residual = 0, Final residual = 0, No Iterations 0
diagonal:  Solving for rhoUx, Initial residual = 0, Final residual = 0, No Iterations 0
diagonal:  Solving for rhoUy, Initial residual = 0, Final residual = 0, No Iterations 0
diagonal:  Solving for rhoE, Initial residual = 0, Final residual = 0, No Iterations 0
diagonal:  Solving for rho, Initial residual = 0, Final residual = 0, No Iterations 0
diagonal:  Solving for rhoUx, Initial residual = 0, Final residual = 0, No Iterations 0
diagonal:  Solving for rhoUy, Initial residual = 0, Final residual = 0, No Iterations 0
diagonal:  Solving for rhoE, Initial residual = 0, Final residual = 0, No Iterations 0
diagonal:  Solving for rho, Initial residual = 0, Final residual = 0, No Iterations 0
diagonal:  Solving for rhoUx, Initial residual = 0, Final residual = 0, No Iterations 0
diagonal:  Solving for rhoUy, Initial residual = 0, Final residual = 0, No Iterations 0
diagonal:  Solving for rhoE, Initial residual = 0, Final residual = 0, No Iterations 0
    ExecutionTime = 0.16 s

Courant Number mean: 0.0969548 max: 0.993867 velocity magnitude: 168.452

 Time = 0.0002
diagonal:  Solving for rho, Initial residual = 0, Final residual = 0, No Iterations 0
diagonal:  Solving for rhoUx, Initial residual = 0, Final residual = 0, No Iterations 0
diagonal:  Solving for rhoUy, Initial residual = 0, Final residual = 0, No Iterations 0
diagonal:  Solving for rhoE, Initial residual = 0, Final residual = 0, No Iterations 0
diagonal:  Solving for rho, Initial residual = 0, Final residual = 0, No Iterations 0
diagonal:  Solving for rhoUx, Initial residual = 0, Final residual = 0, No Iterations 0
diagonal:  Solving for rhoUy, Initial residual = 0, Final residual = 0, No Iterations 0
diagonal:  Solving for rhoE, Initial residual = 0, Final residual = 0, No Iterations 0
diagonal:  Solving for rho, Initial residual = 0, Final residual = 0, No Iterations 0
diagonal:  Solving for rhoUx, Initial residual = 0, Final residual = 0, No Iterations 0
diagonal:  Solving for rhoUy, Initial residual = 0, Final residual = 0, No Iterations 0
diagonal:  Solving for rhoE, Initial residual = 0, Final residual = 0, No Iterations 0
diagonal:  Solving for rho, Initial residual = 0, Final residual = 0, No Iterations 0
diagonal:  Solving for rhoUx, Initial residual = 0, Final residual = 0, No Iterations 0
diagonal:  Solving for rhoUy, Initial residual = 0, Final residual = 0, No Iterations 0
diagonal:  Solving for rhoE, Initial residual = 0, Final residual = 0, No Iterations 0
    ExecutionTime = 0.17 s

Courant Number mean: 0.102148 max: 0.954345 velocity magnitude: 161.753

 Time = 0.00021
diagonal:  Solving for rho, Initial residual = 0, Final residual = 0, No Iterations 0
diagonal:  Solving for rhoUx, Initial residual = 0, Final residual = 0, No Iterations 0
diagonal:  Solving for rhoUy, Initial residual = 0, Final residual = 0, No Iterations 0
diagonal:  Solving for rhoE, Initial residual = 0, Final residual = 0, No Iterations 0
diagonal:  Solving for rho, Initial residual = 0, Final residual = 0, No Iterations 0
diagonal:  Solving for rhoUx, Initial residual = 0, Final residual = 0, No Iterations 0
diagonal:  Solving for rhoUy, Initial residual = 0, Final residual = 0, No Iterations 0
diagonal:  Solving for rhoE, Initial residual = 0, Final residual = 0, No Iterations 0
diagonal:  Solving for rho, Initial residual = 0, Final residual = 0, No Iterations 0
diagonal:  Solving for rhoUx, Initial residual = 0, Final residual = 0, No Iterations 0
diagonal:  Solving for rhoUy, Initial residual = 0, Final residual = 0, No Iterations 0
diagonal:  Solving for rhoE, Initial residual = 0, Final residual = 0, No Iterations 0
diagonal:  Solving for rho, Initial residual = 0, Final residual = 0, No Iterations 0
diagonal:  Solving for rhoUx, Initial residual = 0, Final residual = 0, No Iterations 0
diagonal:  Solving for rhoUy, Initial residual = 0, Final residual = 0, No Iterations 0
diagonal:  Solving for rhoE, Initial residual = 0, Final residual = 0, No Iterations 0
    ExecutionTime = 0.18 s

Courant Number mean: 0.107351 max: 1.13174 velocity magnitude: 191.821

 Time = 0.00022
diagonal:  Solving for rho, Initial residual = 0, Final residual = 0, No Iterations 0
diagonal:  Solving for rhoUx, Initial residual = 0, Final residual = 0, No Iterations 0
diagonal:  Solving for rhoUy, Initial residual = 0, Final residual = 0, No Iterations 0
diagonal:  Solving for rhoE, Initial residual = 0, Final residual = 0, No Iterations 0
diagonal:  Solving for rho, Initial residual = 0, Final residual = 0, No Iterations 0
diagonal:  Solving for rhoUx, Initial residual = 0, Final residual = 0, No Iterations 0
diagonal:  Solving for rhoUy, Initial residual = 0, Final residual = 0, No Iterations 0
diagonal:  Solving for rhoE, Initial residual = 0, Final residual = 0, No Iterations 0
diagonal:  Solving for rho, Initial residual = 0, Final residual = 0, No Iterations 0
diagonal:  Solving for rhoUx, Initial residual = 0, Final residual = 0, No Iterations 0
diagonal:  Solving for rhoUy, Initial residual = 0, Final residual = 0, No Iterations 0
diagonal:  Solving for rhoE, Initial residual = 0, Final residual = 0, No Iterations 0
diagonal:  Solving for rho, Initial residual = 0, Final residual = 0, No Iterations 0
diagonal:  Solving for rhoUx, Initial residual = 0, Final residual = 0, No Iterations 0
diagonal:  Solving for rhoUy, Initial residual = 0, Final residual = 0, No Iterations 0
diagonal:  Solving for rhoE, Initial residual = 0, Final residual = 0, No Iterations 0
    ExecutionTime = 0.18 s

Courant Number mean: 0.112673 max: 1.28895 velocity magnitude: 218.465

 Time = 0.00023
diagonal:  Solving for rho, Initial residual = 0, Final residual = 0, No Iterations 0
diagonal:  Solving for rhoUx, Initial residual = 0, Final residual = 0, No Iterations 0
diagonal:  Solving for rhoUy, Initial residual = 0, Final residual = 0, No Iterations 0
diagonal:  Solving for rhoE, Initial residual = 0, Final residual = 0, No Iterations 0
diagonal:  Solving for rho, Initial residual = 0, Final residual = 0, No Iterations 0
diagonal:  Solving for rhoUx, Initial residual = 0, Final residual = 0, No Iterations 0
diagonal:  Solving for rhoUy, Initial residual = 0, Final residual = 0, No Iterations 0
diagonal:  Solving for rhoE, Initial residual = 0, Final residual = 0, No Iterations 0
diagonal:  Solving for rho, Initial residual = 0, Final residual = 0, No Iterations 0
diagonal:  Solving for rhoUx, Initial residual = 0, Final residual = 0, No Iterations 0
diagonal:  Solving for rhoUy, Initial residual = 0, Final residual = 0, No Iterations 0
diagonal:  Solving for rhoE, Initial residual = 0, Final residual = 0, No Iterations 0
diagonal:  Solving for rho, Initial residual = 0, Final residual = 0, No Iterations 0
diagonal:  Solving for rhoUx, Initial residual = 0, Final residual = 0, No Iterations 0
diagonal:  Solving for rhoUy, Initial residual = 0, Final residual = 0, No Iterations 0
diagonal:  Solving for rhoE, Initial residual = 0, Final residual = 0, No Iterations 0
    ExecutionTime = 0.19 s

Courant Number mean: 0.1181 max: 1.0704 velocity magnitude: 181.423

 Time = 0.00024
diagonal:  Solving for rho, Initial residual = 0, Final residual = 0, No Iterations 0
diagonal:  Solving for rhoUx, Initial residual = 0, Final residual = 0, No Iterations 0
diagonal:  Solving for rhoUy, Initial residual = 0, Final residual = 0, No Iterations 0
diagonal:  Solving for rhoE, Initial residual = 0, Final residual = 0, No Iterations 0
diagonal:  Solving for rho, Initial residual = 0, Final residual = 0, No Iterations 0
diagonal:  Solving for rhoUx, Initial residual = 0, Final residual = 0, No Iterations 0
diagonal:  Solving for rhoUy, Initial residual = 0, Final residual = 0, No Iterations 0
diagonal:  Solving for rhoE, Initial residual = 0, Final residual = 0, No Iterations 0
diagonal:  Solving for rho, Initial residual = 0, Final residual = 0, No Iterations 0
diagonal:  Solving for rhoUx, Initial residual = 0, Final residual = 0, No Iterations 0
diagonal:  Solving for rhoUy, Initial residual = 0, Final residual = 0, No Iterations 0
diagonal:  Solving for rhoE, Initial residual = 0, Final residual = 0, No Iterations 0
diagonal:  Solving for rho, Initial residual = 0, Final residual = 0, No Iterations 0
diagonal:  Solving for rhoUx, Initial residual = 0, Final residual = 0, No Iterations 0
diagonal:  Solving for rhoUy, Initial residual = 0, Final residual = 0, No Iterations 0
diagonal:  Solving for rhoE, Initial residual = 0, Final residual = 0, No Iterations 0
bounding h, min: -8.54232e+06 max: 351959 average: 258668
new min: 43030.9
    ExecutionTime = 0.21 s

Courant Number mean: 0.124592 max: 1.62532 velocity magnitude: 275.478

 Time = 0.00025
diagonal:  Solving for rho, Initial residual = 0, Final residual = 0, No Iterations 0
diagonal:  Solving for rhoUx, Initial residual = 0, Final residual = 0, No Iterations 0
diagonal:  Solving for rhoUy, Initial residual = 0, Final residual = 0, No Iterations 0
diagonal:  Solving for rhoE, Initial residual = 0, Final residual = 0, No Iterations 0
bounding h, min: -449215 max: 1.03929e+06 average: 274427
new min: 227691
bounding rho, min: -0.614154 max: 3.8681 average: 2.57873
new min: 1.14354
diagonal:  Solving for rho, Initial residual = 0, Final residual = 0, No Iterations 0
diagonal:  Solving for rhoUx, Initial residual = 0, Final residual = 0, No Iterations 0
diagonal:  Solving for rhoUy, Initial residual = 0, Final residual = 0, No Iterations 0
diagonal:  Solving for rhoE, Initial residual = 0, Final residual = 0, No Iterations 0
bounding h, min: -2.59228e+07 max: 680006 average: 224895
new min: 88800.7
bounding rho, min: -0.68403 max: 4.21816 average: 2.57873
new min: 0.277491
diagonal:  Solving for rho, Initial residual = 0, Final residual = 0, No Iterations 0
diagonal:  Solving for rhoUx, Initial residual = 0, Final residual = 0, No Iterations 0
diagonal:  Solving for rhoUy, Initial residual = 0, Final residual = 0, No Iterations 0
diagonal:  Solving for rhoE, Initial residual = 0, Final residual = 0, No Iterations 0
bounding h, min: -2.81805e+07 max: 773460 average: 221104
new min: 7466.12
bounding rho, min: -26.8067 max: 24.1423 average: 2.57873
new min: 1.28507
diagonal:  Solving for rho, Initial residual = 0, Final residual = 0, No Iterations 0
diagonal:  Solving for rhoUx, Initial residual = 0, Final residual = 0, No Iterations 0
diagonal:  Solving for rhoUy, Initial residual = 0, Final residual = 0, No Iterations 0
diagonal:  Solving for rhoE, Initial residual = 0, Final residual = 0, No Iterations 0
bounding h, min: -2.67142e+07 max: 648197 average: 171825
new min: 1.007
bounding rho, min: -122.848 max: 142.899 average: 2.57873
new min: 0.001
bounding p, min: 0.000287699 max: 6.94859e+06 average: 222166
new min: 4.37675
    ExecutionTime = 0.21 s

Courant Number mean: 0.141048 max: 6.60557 velocity magnitude: 1119.59

 Time = 0.00026
diagonal:  Solving for rho, Initial residual = 0, Final residual = 0, No Iterations 0
diagonal:  Solving for rhoUx, Initial residual = 0, Final residual = 0, No Iterations 0
diagonal:  Solving for rhoUy, Initial residual = 0, Final residual = 0, No Iterations 0
diagonal:  Solving for rhoE, Initial residual = 0, Final residual = 0, No Iterations 0
bounding h, min: -8.01846e+07 max: 759062 average: 134762
new min: 1.007
bounding rho, min: -1.8703e+06 max: 1.05716e+06 average: 3.04047
new min: 1.28937
new max: 10000
bounding p, min: 2171.11 max: 8.52968e+07 average: 385638
new max: 6.95722e+06
diagonal:  Solving for rho, Initial residual = 0, Final residual = 0, No Iterations 0
diagonal:  Solving for rhoUx, Initial residual = 0, Final residual = 0, No Iterations 0
diagonal:  Solving for rhoUy, Initial residual = 0, Final residual = 0, No Iterations 0
diagonal:  Solving for rhoE, Initial residual = 0, Final residual = 0, No Iterations 0
bounding h, min: -1.49634e+08 max: 726671 average: 14005.5
new min: 1.007
bounding rho, min: -151308 max: 94985.1 average: 3.04037
new min: 1.28937
new max: 7609.99
bounding p, min: 3.55736 max: 1.92753e+07 average: 275043
new max: 6.82629e+06
diagonal:  Solving for rho, Initial residual = 0, Final residual = 0, No Iterations 0
diagonal:  Solving for rhoUx, Initial residual = 0, Final residual = 0, No Iterations 0
diagonal:  Solving for rhoUy, Initial residual = 0, Final residual = 0, No Iterations 0
diagonal:  Solving for rhoE, Initial residual = 0, Final residual = 0, No Iterations 0
bounding h, min: -6.0038e+07 max: 846723 average: 127438
new min: 1.007
bounding rho, min: -380282 max: 255362 average: 3.04034
new min: 1.28937
new max: 10000
bounding p, min: 2402.63 max: 1.4111e+08 average: 832618
new max: 9.14663e+06
diagonal:  Solving for rho, Initial residual = 0, Final residual = 0, No Iterations 0
diagonal:  Solving for rhoUx, Initial residual = 0, Final residual = 0, No Iterations 0
diagonal:  Solving for rhoUy, Initial residual = 0, Final residual = 0, No Iterations 0
diagonal:  Solving for rhoE, Initial residual = 0, Final residual = 0, No Iterations 0
bounding h, min: -8.78728e+07 max: 854171 average: -141827
new min: 1.007
bounding rho, min: -1.18031e+06 max: 685025 average: 3.04044
new min: 1.28937
new max: 10000
bounding p, min: 519.694 max: 8.72615e+07 average: 651669
new max: 1e+07
    ExecutionTime = 0.22 s

Courant Number mean: 0.608201 max: 74.7088 velocity magnitude: 12662.5

 Time = 0.00027
diagonal:  Solving for rho, Initial residual = 0, Final residual = 0, No Iterations 0
diagonal:  Solving for rhoUx, Initial residual = 0, Final residual = 0, No Iterations 0
diagonal:  Solving for rhoUy, Initial residual = 0, Final residual = 0, No Iterations 0
diagonal:  Solving for rhoE, Initial residual = 0, Final residual = 0, No Iterations 0
bounding h, min: -5.63373e+10 max: 3.52343e+08 average: -1.48667e+08
new min: 1.007
new max: 1.007e+07
bounding rho, min: -144021 max: 79995.7 average: 157.917
new min: 1.28937
new max: 10000
bounding p, min: 2699.14 max: 2.87699e+10 average: 1.18145e+08
new max: 1e+07
diagonal:  Solving for rho, Initial residual = 0, Final residual = 0, No Iterations 0
diagonal:  Solving for rhoUx, Initial residual = 0, Final residual = 0, No Iterations 0
diagonal:  Solving for rhoUy, Initial residual = 0, Final residual = 0, No Iterations 0
diagonal:  Solving for rhoE, Initial residual = 0, Final residual = 0, No Iterations 0
bounding h, min: -1.17876e+12 max: 7.48756e+08 average: -2.26727e+09
new min: 1.007
new max: 1.007e+07

    From function specieThermo<thermo>::T(scalar f, scalar T0, scalar (specieThermo<thermo>::*F)(const scalar) const, scalar (specieThermo<thermo>::*dFdT)(const scalar) const) const
    in file /opt/foam/foam-extend-4.0/src/thermophysicalModels/specie/lnInclude/specieThermoI.H at line 72
    Maximum number of iterations exceeded.  T0 = 10000 F = 8.03586e+06 dFdT = 1007

    From function specieThermo<thermo>::T(scalar f, scalar T0, scalar (specieThermo<thermo>::*F)(const scalar) const, scalar (specieThermo<thermo>::*dFdT)(const scalar) const) const
    in file /opt/foam/foam-extend-4.0/src/thermophysicalModels/specie/lnInclude/specieThermoI.H at line 72
    Maximum number of iterations exceeded.  T0 = 7642.32 F = 5.66168e+06 dFdT = 1007

    From function specieThermo<thermo>::T(scalar f, scalar T0, scalar (specieThermo<thermo>::*F)(const scalar) const, scalar (specieThermo<thermo>::*dFdT)(const scalar) const) const
    in file /opt/foam/foam-extend-4.0/src/thermophysicalModels/specie/lnInclude/specieThermoI.H at line 72
    Maximum number of iterations exceeded.  T0 = 10000 F = 8.03586e+06 dFdT = 1007

    From function specieThermo<thermo>::T(scalar f, scalar T0, scalar (specieThermo<thermo>::*F)(const scalar) const, scalar (specieThermo<thermo>::*dFdT)(const scalar) const) const
    in file /opt/foam/foam-extend-4.0/src/thermophysicalModels/specie/lnInclude/specieThermoI.H at line 72
    Maximum number of iterations exceeded.  T0 = 7642.32 F = 5.66168e+06 dFdT = 1007

    From function specieThermo<thermo>::T(scalar f, scalar T0, scalar (specieThermo<thermo>::*F)(const scalar) const, scalar (specieThermo<thermo>::*dFdT)(const scalar) const) const
    in file /opt/foam/foam-extend-4.0/src/thermophysicalModels/specie/lnInclude/specieThermoI.H at line 72
    Maximum number of iterations exceeded.  T0 = 10000 F = 8.03586e+06 dFdT = 1007

    From function specieThermo<thermo>::T(scalar f, scalar T0, scalar (specieThermo<thermo>::*F)(const scalar) const, scalar (specieThermo<thermo>::*dFdT)(const scalar) const) const
    in file /opt/foam/foam-extend-4.0/src/thermophysicalModels/specie/lnInclude/specieThermoI.H at line 72
    Maximum number of iterations exceeded.  T0 = 7642.32 F = 5.66168e+06 dFdT = 1007
bounding rho, min: -2.09588e+06 max: 4.58962e+06 average: 157.917
new min: 0.001
new max: 10000
bounding p, min: 0.000287699 max: 2.87699e+10 average: 2.48445e+08
new min: 124.459
new max: 1e+07
diagonal:  Solving for rho, Initial residual = 0, Final residual = 0, No Iterations 0
diagonal:  Solving for rhoUx, Initial residual = 0, Final residual = 0, No Iterations 0
diagonal:  Solving for rhoUy, Initial residual = 0, Final residual = 0, No Iterations 0
diagonal:  Solving for rhoE, Initial residual = 0, Final residual = 0, No Iterations 0
bounding h, min: -3.17443e+12 max: 7.63667e+09 average: -5.6685e+09
new min: 1.007
new max: 1.007e+07

    From function specieThermo<thermo>::T(scalar f, scalar T0, scalar (specieThermo<thermo>::*F)(const scalar) const, scalar (specieThermo<thermo>::*dFdT)(const scalar) const) const
    in file /opt/foam/foam-extend-4.0/src/thermophysicalModels/specie/lnInclude/specieThermoI.H at line 72
    Maximum number of iterations exceeded.  T0 = 8272.09 F = 6.29586e+06 dFdT = 1007

    From function specieThermo<thermo>::T(scalar f, scalar T0, scalar (specieThermo<thermo>::*F)(const scalar) const, scalar (specieThermo<thermo>::*dFdT)(const scalar) const) const
    in file /opt/foam/foam-extend-4.0/src/thermophysicalModels/specie/lnInclude/specieThermoI.H at line 72
    Maximum number of iterations exceeded.  T0 = 7541.67 F = 5.56032e+06 dFdT = 1007

    From function specieThermo<thermo>::T(scalar f, scalar T0, scalar (specieThermo<thermo>::*F)(const scalar) const, scalar (specieThermo<thermo>::*dFdT)(const scalar) const) const
    in file /opt/foam/foam-extend-4.0/src/thermophysicalModels/specie/lnInclude/specieThermoI.H at line 72
    Maximum number of iterations exceeded.  T0 = 7541.67 F = 5.56032e+06 dFdT = 1007

    From function specieThermo<thermo>::T(scalar f, scalar T0, scalar (specieThermo<thermo>::*F)(const scalar) const, scalar (specieThermo<thermo>::*dFdT)(const scalar) const) const
    in file /opt/foam/foam-extend-4.0/src/thermophysicalModels/specie/lnInclude/specieThermoI.H at line 72
    Maximum number of iterations exceeded.  T0 = 10000 F = 8.03586e+06 dFdT = 1007

    From function specieThermo<thermo>::T(scalar f, scalar T0, scalar (specieThermo<thermo>::*F)(const scalar) const, scalar (specieThermo<thermo>::*dFdT)(const scalar) const) const
    in file /opt/foam/foam-extend-4.0/src/thermophysicalModels/specie/lnInclude/specieThermoI.H at line 72
    Maximum number of iterations exceeded.  T0 = 8272.09 F = 6.29586e+06 dFdT = 1007

    From function specieThermo<thermo>::T(scalar f, scalar T0, scalar (specieThermo<thermo>::*F)(const scalar) const, scalar (specieThermo<thermo>::*dFdT)(const scalar) const) const
    in file /opt/foam/foam-extend-4.0/src/thermophysicalModels/specie/lnInclude/specieThermoI.H at line 72
    Maximum number of iterations exceeded.  T0 = 7541.67 F = 5.56032e+06 dFdT = 1007

    From function specieThermo<thermo>::T(scalar f, scalar T0, scalar (specieThermo<thermo>::*F)(const scalar) const, scalar (specieThermo<thermo>::*dFdT)(const scalar) const) const
    in file /opt/foam/foam-extend-4.0/src/thermophysicalModels/specie/lnInclude/specieThermoI.H at line 72
    Maximum number of iterations exceeded.  T0 = 7541.67 F = 5.56032e+06 dFdT = 1007

    From function specieThermo<thermo>::T(scalar f, scalar T0, scalar (specieThermo<thermo>::*F)(const scalar) const, scalar (specieThermo<thermo>::*dFdT)(const scalar) const) const
    in file /opt/foam/foam-extend-4.0/src/thermophysicalModels/specie/lnInclude/specieThermoI.H at line 72
    Maximum number of iterations exceeded.  T0 = 10000 F = 8.03586e+06 dFdT = 1007

    From function specieThermo<thermo>::T(scalar f, scalar T0, scalar (specieThermo<thermo>::*F)(const scalar) const, scalar (specieThermo<thermo>::*dFdT)(const scalar) const) const
    in file /opt/foam/foam-extend-4.0/src/thermophysicalModels/specie/lnInclude/specieThermoI.H at line 72
    Maximum number of iterations exceeded.  T0 = 8272.09 F = 6.29586e+06 dFdT = 1007

    From function specieThermo<thermo>::T(scalar f, scalar T0, scalar (specieThermo<thermo>::*F)(const scalar) const, scalar (specieThermo<thermo>::*dFdT)(const scalar) const) const
    in file /opt/foam/foam-extend-4.0/src/thermophysicalModels/specie/lnInclude/specieThermoI.H at line 72
    Maximum number of iterations exceeded.  T0 = 7541.67 F = 5.56032e+06 dFdT = 1007

    From function specieThermo<thermo>::T(scalar f, scalar T0, scalar (specieThermo<thermo>::*F)(const scalar) const, scalar (specieThermo<thermo>::*dFdT)(const scalar) const) const
    in file /opt/foam/foam-extend-4.0/src/thermophysicalModels/specie/lnInclude/specieThermoI.H at line 72
    Maximum number of iterations exceeded.  T0 = 7541.67 F = 5.56032e+06 dFdT = 1007

    From function specieThermo<thermo>::T(scalar f, scalar T0, scalar (specieThermo<thermo>::*F)(const scalar) const, scalar (specieThermo<thermo>::*dFdT)(const scalar) const) const
    in file /opt/foam/foam-extend-4.0/src/thermophysicalModels/specie/lnInclude/specieThermoI.H at line 72
    Maximum number of iterations exceeded.  T0 = 10000 F = 8.03586e+06 dFdT = 1007
bounding rho, min: -3.42932e+10 max: 2.75448e+10 average: 154.488
new min: 1.28937
new max: 10000
bounding p, min: 144.522 max: 2.87699e+10 average: 2.89739e+08
new max: 1e+07
diagonal:  Solving for rho, Initial residual = 0, Final residual = 0, No Iterations 0
diagonal:  Solving for rhoUx, Initial residual = 0, Final residual = 0, No Iterations 0
diagonal:  Solving for rhoUy, Initial residual = 0, Final residual = 0, No Iterations 0
diagonal:  Solving for rhoE, Initial residual = 0, Final residual = 0, No Iterations 0
bounding h, min: -4.90446e+11 max: 7.05109e+10 average: -6.71966e+08
new min: 1.007
new max: 1.007e+07
bounding rho, min: -4.11968e+07 max: 4.54363e+07 average: 157.923
new min: 0.001
new max: 10000
bounding p, min: 0.000287699 max: 2.87699e+10 average: 5.63104e+08
new min: 570.565
new max: 1e+07
    ExecutionTime = 0.23 s

Courant Number mean: 20.7229 max: 4574.98 velocity magnitude: 775421

 Time = 0.00028
diagonal:  Solving for rho, Initial residual = 0, Final residual = 0, No Iterations 0
diagonal:  Solving for rhoUx, Initial residual = 0, Final residual = 0, No Iterations 0
diagonal:  Solving for rhoUy, Initial residual = 0, Final residual = 0, No Iterations 0
diagonal:  Solving for rhoE, Initial residual = 0, Final residual = 0, No Iterations 0
bounding h, min: -6.09678e+17 max: 4.00635e+11 average: -1.77371e+15
new min: 1.007
new max: 1.007e+07

    From function specieThermo<thermo>::T(scalar f, scalar T0, scalar (specieThermo<thermo>::*F)(const scalar) const, scalar (specieThermo<thermo>::*dFdT)(const scalar) const) const
    in file /opt/foam/foam-extend-4.0/src/thermophysicalModels/specie/lnInclude/specieThermoI.H at line 72
    Maximum number of iterations exceeded.  T0 = 10000 F = 8.03586e+06 dFdT = 1007

    From function specieThermo<thermo>::T(scalar f, scalar T0, scalar (specieThermo<thermo>::*F)(const scalar) const, scalar (specieThermo<thermo>::*dFdT)(const scalar) const) const
    in file /opt/foam/foam-extend-4.0/src/thermophysicalModels/specie/lnInclude/specieThermoI.H at line 72
    Maximum number of iterations exceeded.  T0 = 7541.67 F = 5.56032e+06 dFdT = 1007

    From function specieThermo<thermo>::T(scalar f, scalar T0, scalar (specieThermo<thermo>::*F)(const scalar) const, scalar (specieThermo<thermo>::*dFdT)(const scalar) const) const
    in file /opt/foam/foam-extend-4.0/src/thermophysicalModels/specie/lnInclude/specieThermoI.H at line 72
    Maximum number of iterations exceeded.  T0 = 8339.94 F = 6.36418e+06 dFdT = 1007

    From function specieThermo<thermo>::T(scalar f, scalar T0, scalar (specieThermo<thermo>::*F)(const scalar) const, scalar (specieThermo<thermo>::*dFdT)(const scalar) const) const
    in file /opt/foam/foam-extend-4.0/src/thermophysicalModels/specie/lnInclude/specieThermoI.H at line 72
    Maximum number of iterations exceeded.  T0 = 9591.9 F = 7.6249e+06 dFdT = 1007

    From function specieThermo<thermo>::T(scalar f, scalar T0, scalar (specieThermo<thermo>::*F)(const scalar) const, scalar (specieThermo<thermo>::*dFdT)(const scalar) const) const
    in file /opt/foam/foam-extend-4.0/src/thermophysicalModels/specie/lnInclude/specieThermoI.H at line 72
    Maximum number of iterations exceeded.  T0 = 10000 F = 8.03586e+06 dFdT = 1007

    From function specieThermo<thermo>::T(scalar f, scalar T0, scalar (specieThermo<thermo>::*F)(const scalar) const, scalar (specieThermo<thermo>::*dFdT)(const scalar) const) const
    in file /opt/foam/foam-extend-4.0/src/thermophysicalModels/specie/lnInclude/specieThermoI.H at line 72
    Maximum number of iterations exceeded.  T0 = 10000 F = 8.03586e+06 dFdT = 1007

    From function specieThermo<thermo>::T(scalar f, scalar T0, scalar (specieThermo<thermo>::*F)(const scalar) const, scalar (specieThermo<thermo>::*dFdT)(const scalar) const) const
    in file /opt/foam/foam-extend-4.0/src/thermophysicalModels/specie/lnInclude/specieThermoI.H at line 72
    Maximum number of iterations exceeded.  T0 = 10000 F = 8.03586e+06 dFdT = 1007

    From function specieThermo<thermo>::T(scalar f, scalar T0, scalar (specieThermo<thermo>::*F)(const scalar) const, scalar (specieThermo<thermo>::*dFdT)(const scalar) const) const
    in file /opt/foam/foam-extend-4.0/src/thermophysicalModels/specie/lnInclude/specieThermoI.H at line 72
    Maximum number of iterations exceeded.  T0 = 10000 F = 8.03586e+06 dFdT = 1007

    From function specieThermo<thermo>::T(scalar f, scalar T0, scalar (specieThermo<thermo>::*F)(const scalar) const, scalar (specieThermo<thermo>::*dFdT)(const scalar) const) const
    in file /opt/foam/foam-extend-4.0/src/thermophysicalModels/specie/lnInclude/specieThermoI.H at line 72
    Maximum number of iterations exceeded.  T0 = 10000 F = 8.03586e+06 dFdT = 1007

    From function specieThermo<thermo>::T(scalar f, scalar T0, scalar (specieThermo<thermo>::*F)(const scalar) const, scalar (specieThermo<thermo>::*dFdT)(const scalar) const) const
    in file /opt/foam/foam-extend-4.0/src/thermophysicalModels/specie/lnInclude/specieThermoI.H at line 72
    Maximum number of iterations exceeded.  T0 = 10000 F = 8.03586e+06 dFdT = 1007

    From function specieThermo<thermo>::T(scalar f, scalar T0, scalar (specieThermo<thermo>::*F)(const scalar) const, scalar (specieThermo<thermo>::*dFdT)(const scalar) const) const
    in file /opt/foam/foam-extend-4.0/src/thermophysicalModels/specie/lnInclude/specieThermoI.H at line 72
    Maximum number of iterations exceeded.  T0 = 7541.67 F = 5.56032e+06 dFdT = 1007

    From function specieThermo<thermo>::T(scalar f, scalar T0, scalar (specieThermo<thermo>::*F)(const scalar) const, scalar (specieThermo<thermo>::*dFdT)(const scalar) const) const
    in file /opt/foam/foam-extend-4.0/src/thermophysicalModels/specie/lnInclude/specieThermoI.H at line 72
    Maximum number of iterations exceeded.  T0 = 8339.94 F = 6.36418e+06 dFdT = 1007

    From function specieThermo<thermo>::T(scalar f, scalar T0, scalar (specieThermo<thermo>::*F)(const scalar) const, scalar (specieThermo<thermo>::*dFdT)(const scalar) const) const
    in file /opt/foam/foam-extend-4.0/src/thermophysicalModels/specie/lnInclude/specieThermoI.H at line 72
    Maximum number of iterations exceeded.  T0 = 9591.9 F = 7.6249e+06 dFdT = 1007

    From function specieThermo<thermo>::T(scalar f, scalar T0, scalar (specieThermo<thermo>::*F)(const scalar) const, scalar (specieThermo<thermo>::*dFdT)(const scalar) const) const
    in file /opt/foam/foam-extend-4.0/src/thermophysicalModels/specie/lnInclude/specieThermoI.H at line 72
    Maximum number of iterations exceeded.  T0 = 10000 F = 8.03586e+06 dFdT = 1007

    From function specieThermo<thermo>::T(scalar f, scalar T0, scalar (specieThermo<thermo>::*F)(const scalar) const, scalar (specieThermo<thermo>::*dFdT)(const scalar) const) const
    in file /opt/foam/foam-extend-4.0/src/thermophysicalModels/specie/lnInclude/specieThermoI.H at line 72
    Maximum number of iterations exceeded.  T0 = 10000 F = 8.03586e+06 dFdT = 1007

    From function specieThermo<thermo>::T(scalar f, scalar T0, scalar (specieThermo<thermo>::*F)(const scalar) const, scalar (specieThermo<thermo>::*dFdT)(const scalar) const) const
    in file /opt/foam/foam-extend-4.0/src/thermophysicalModels/specie/lnInclude/specieThermoI.H at line 72
    Maximum number of iterations exceeded.  T0 = 10000 F = 8.03586e+06 dFdT = 1007

    From function specieThermo<thermo>::T(scalar f, scalar T0, scalar (specieThermo<thermo>::*F)(const scalar) const, scalar (specieThermo<thermo>::*dFdT)(const scalar) const) const
    in file /opt/foam/foam-extend-4.0/src/thermophysicalModels/specie/lnInclude/specieThermoI.H at line 72
    Maximum number of iterations exceeded.  T0 = 10000 F = 8.03586e+06 dFdT = 1007

    From function specieThermo<thermo>::T(scalar f, scalar T0, scalar (specieThermo<thermo>::*F)(const scalar) const, scalar (specieThermo<thermo>::*dFdT)(const scalar) const) const
    in file /opt/foam/foam-extend-4.0/src/thermophysicalModels/specie/lnInclude/specieThermoI.H at line 72
    Maximum number of iterations exceeded.  T0 = 10000 F = 8.03586e+06 dFdT = 1007

    From function specieThermo<thermo>::T(scalar f, scalar T0, scalar (specieThermo<thermo>::*F)(const scalar) const, scalar (specieThermo<thermo>::*dFdT)(const scalar) const) const
    in file /opt/foam/foam-extend-4.0/src/thermophysicalModels/specie/lnInclude/specieThermoI.H at line 72
    Maximum number of iterations exceeded.  T0 = 10000 F = 8.03586e+06 dFdT = 1007

    From function specieThermo<thermo>::T(scalar f, scalar T0, scalar (specieThermo<thermo>::*F)(const scalar) const, scalar (specieThermo<thermo>::*dFdT)(const scalar) const) const
    in file /opt/foam/foam-extend-4.0/src/thermophysicalModels/specie/lnInclude/specieThermoI.H at line 72
    Maximum number of iterations exceeded.  T0 = 7541.67 F = 5.56032e+06 dFdT = 1007

    From function specieThermo<thermo>::T(scalar f, scalar T0, scalar (specieThermo<thermo>::*F)(const scalar) const, scalar (specieThermo<thermo>::*dFdT)(const scalar) const) const
    in file /opt/foam/foam-extend-4.0/src/thermophysicalModels/specie/lnInclude/specieThermoI.H at line 72
    Maximum number of iterations exceeded.  T0 = 8339.94 F = 6.36418e+06 dFdT = 1007

    From function specieThermo<thermo>::T(scalar f, scalar T0, scalar (specieThermo<thermo>::*F)(const scalar) const, scalar (specieThermo<thermo>::*dFdT)(const scalar) const) const
    in file /opt/foam/foam-extend-4.0/src/thermophysicalModels/specie/lnInclude/specieThermoI.H at line 72
    Maximum number of iterations exceeded.  T0 = 9591.9 F = 7.6249e+06 dFdT = 1007

    From function specieThermo<thermo>::T(scalar f, scalar T0, scalar (specieThermo<thermo>::*F)(const scalar) const, scalar (specieThermo<thermo>::*dFdT)(const scalar) const) const
    in file /opt/foam/foam-extend-4.0/src/thermophysicalModels/specie/lnInclude/specieThermoI.H at line 72
    Maximum number of iterations exceeded.  T0 = 10000 F = 8.03586e+06 dFdT = 1007

    From function specieThermo<thermo>::T(scalar f, scalar T0, scalar (specieThermo<thermo>::*F)(const scalar) const, scalar (specieThermo<thermo>::*dFdT)(const scalar) const) const
    in file /opt/foam/foam-extend-4.0/src/thermophysicalModels/specie/lnInclude/specieThermoI.H at line 72
    Maximum number of iterations exceeded.  T0 = 10000 F = 8.03586e+06 dFdT = 1007

    From function specieThermo<thermo>::T(scalar f, scalar T0, scalar (specieThermo<thermo>::*F)(const scalar) const, scalar (specieThermo<thermo>::*dFdT)(const scalar) const) const
    in file /opt/foam/foam-extend-4.0/src/thermophysicalModels/specie/lnInclude/specieThermoI.H at line 72
    Maximum number of iterations exceeded.  T0 = 10000 F = 8.03586e+06 dFdT = 1007

    From function specieThermo<thermo>::T(scalar f, scalar T0, scalar (specieThermo<thermo>::*F)(const scalar) const, scalar (specieThermo<thermo>::*dFdT)(const scalar) const) const
    in file /opt/foam/foam-extend-4.0/src/thermophysicalModels/specie/lnInclude/specieThermoI.H at line 72
    Maximum number of iterations exceeded.  T0 = 10000 F = 8.03586e+06 dFdT = 1007

    From function specieThermo<thermo>::T(scalar f, scalar T0, scalar (specieThermo<thermo>::*F)(const scalar) const, scalar (specieThermo<thermo>::*dFdT)(const scalar) const) const
    in file /opt/foam/foam-extend-4.0/src/thermophysicalModels/specie/lnInclude/specieThermoI.H at line 72
    Maximum number of iterations exceeded.  T0 = 10000 F = 8.03586e+06 dFdT = 1007
bounding rho, min: -4.14805e+07 max: 4.15339e+07 average: 286.213
new min: 1.28937
new max: 10000
bounding p, min: 2614.74 max: 2.78277e+10 average: 3.8343e+08
new max: 1e+07
diagonal:  Solving for rho, Initial residual = 0, Final residual = 0, No Iterations 0
diagonal:  Solving for rhoUx, Initial residual = 0, Final residual = 0, No Iterations 0
diagonal:  Solving for rhoUy, Initial residual = 0, Final residual = 0, No Iterations 0
diagonal:  Solving for rhoE, Initial residual = 0, Final residual = 0, No Iterations 0
bounding h, min: -7.65381e+17 max: 3.40174e+14 average: -1.67871e+15
new min: 1.007
new max: 1.007e+07
bounding rho, min: -9.70906e+09 max: 1.52257e+10 average: 286.179
new min: 0.001
new max: 10000
bounding p, min: 0.000287699 max: 2.87699e+10 average: 5.68655e+08
new min: 2169.73
new max: 1e+07
diagonal:  Solving for rho, Initial residual = 0, Final residual = 0, No Iterations 0
diagonal:  Solving for rhoUx, Initial residual = 0, Final residual = 0, No Iterations 0
diagonal:  Solving for rhoUy, Initial residual = 0, Final residual = 0, No Iterations 0
diagonal:  Solving for rhoE, Initial residual = 0, Final residual = 0, No Iterations 0
bounding h, min: -5.47079e+17 max: 1.6081e+16 average: -1.77464e+15
new min: 1.007
new max: 1.007e+07

    From function specieThermo<thermo>::T(scalar f, scalar T0, scalar (specieThermo<thermo>::*F)(const scalar) const, scalar (specieThermo<thermo>::*dFdT)(const scalar) const) const
    in file /opt/foam/foam-extend-4.0/src/thermophysicalModels/specie/lnInclude/specieThermoI.H at line 72
    Maximum number of iterations exceeded.  T0 = 10000 F = 8.03586e+06 dFdT = 1007

    From function specieThermo<thermo>::T(scalar f, scalar T0, scalar (specieThermo<thermo>::*F)(const scalar) const, scalar (specieThermo<thermo>::*dFdT)(const scalar) const) const
    in file /opt/foam/foam-extend-4.0/src/thermophysicalModels/specie/lnInclude/specieThermoI.H at line 72
    Maximum number of iterations exceeded.  T0 = 10000 F = 8.03586e+06 dFdT = 1007

    From function specieThermo<thermo>::T(scalar f, scalar T0, scalar (specieThermo<thermo>::*F)(const scalar) const, scalar (specieThermo<thermo>::*dFdT)(const scalar) const) const
    in file /opt/foam/foam-extend-4.0/src/thermophysicalModels/specie/lnInclude/specieThermoI.H at line 72
    Maximum number of iterations exceeded.  T0 = 10000 F = 8.03586e+06 dFdT = 1007

    From function specieThermo<thermo>::T(scalar f, scalar T0, scalar (specieThermo<thermo>::*F)(const scalar) const, scalar (specieThermo<thermo>::*dFdT)(const scalar) const) const
    in file /opt/foam/foam-extend-4.0/src/thermophysicalModels/specie/lnInclude/specieThermoI.H at line 72
    Maximum number of iterations exceeded.  T0 = 10000 F = 8.03586e+06 dFdT = 1007

    From function specieThermo<thermo>::T(scalar f, scalar T0, scalar (specieThermo<thermo>::*F)(const scalar) const, scalar (specieThermo<thermo>::*dFdT)(const scalar) const) const
    in file /opt/foam/foam-extend-4.0/src/thermophysicalModels/specie/lnInclude/specieThermoI.H at line 72
    Maximum number of iterations exceeded.  T0 = 10000 F = 8.03586e+06 dFdT = 1007

    From function specieThermo<thermo>::T(scalar f, scalar T0, scalar (specieThermo<thermo>::*F)(const scalar) const, scalar (specieThermo<thermo>::*dFdT)(const scalar) const) const
    in file /opt/foam/foam-extend-4.0/src/thermophysicalModels/specie/lnInclude/specieThermoI.H at line 72
    Maximum number of iterations exceeded.  T0 = 10000 F = 8.03586e+06 dFdT = 1007

    From function specieThermo<thermo>::T(scalar f, scalar T0, scalar (specieThermo<thermo>::*F)(const scalar) const, scalar (specieThermo<thermo>::*dFdT)(const scalar) const) const
    in file /opt/foam/foam-extend-4.0/src/thermophysicalModels/specie/lnInclude/specieThermoI.H at line 72
    Maximum number of iterations exceeded.  T0 = 10000 F = 8.03586e+06 dFdT = 1007

    From function specieThermo<thermo>::T(scalar f, scalar T0, scalar (specieThermo<thermo>::*F)(const scalar) const, scalar (specieThermo<thermo>::*dFdT)(const scalar) const) const
    in file /opt/foam/foam-extend-4.0/src/thermophysicalModels/specie/lnInclude/specieThermoI.H at line 72
    Maximum number of iterations exceeded.  T0 = 7541.67 F = 5.56032e+06 dFdT = 1007

    From function specieThermo<thermo>::T(scalar f, scalar T0, scalar (specieThermo<thermo>::*F)(const scalar) const, scalar (specieThermo<thermo>::*dFdT)(const scalar) const) const
    in file /opt/foam/foam-extend-4.0/src/thermophysicalModels/specie/lnInclude/specieThermoI.H at line 72
    Maximum number of iterations exceeded.  T0 = 10000 F = 8.03586e+06 dFdT = 1007

    From function specieThermo<thermo>::T(scalar f, scalar T0, scalar (specieThermo<thermo>::*F)(const scalar) const, scalar (specieThermo<thermo>::*dFdT)(const scalar) const) const
    in file /opt/foam/foam-extend-4.0/src/thermophysicalModels/specie/lnInclude/specieThermoI.H at line 72
    Maximum number of iterations exceeded.  T0 = 10000 F = 8.03586e+06 dFdT = 1007

    From function specieThermo<thermo>::T(scalar f, scalar T0, scalar (specieThermo<thermo>::*F)(const scalar) const, scalar (specieThermo<thermo>::*dFdT)(const scalar) const) const
    in file /opt/foam/foam-extend-4.0/src/thermophysicalModels/specie/lnInclude/specieThermoI.H at line 72
    Maximum number of iterations exceeded.  T0 = 10000 F = 8.03586e+06 dFdT = 1007

    From function specieThermo<thermo>::T(scalar f, scalar T0, scalar (specieThermo<thermo>::*F)(const scalar) const, scalar (specieThermo<thermo>::*dFdT)(const scalar) const) const
    in file /opt/foam/foam-extend-4.0/src/thermophysicalModels/specie/lnInclude/specieThermoI.H at line 72
    Maximum number of iterations exceeded.  T0 = 10000 F = 8.03586e+06 dFdT = 1007

    From function specieThermo<thermo>::T(scalar f, scalar T0, scalar (specieThermo<thermo>::*F)(const scalar) const, scalar (specieThermo<thermo>::*dFdT)(const scalar) const) const
    in file /opt/foam/foam-extend-4.0/src/thermophysicalModels/specie/lnInclude/specieThermoI.H at line 72
    Maximum number of iterations exceeded.  T0 = 10000 F = 8.03586e+06 dFdT = 1007

    From function specieThermo<thermo>::T(scalar f, scalar T0, scalar (specieThermo<thermo>::*F)(const scalar) const, scalar (specieThermo<thermo>::*dFdT)(const scalar) const) const
    in file /opt/foam/foam-extend-4.0/src/thermophysicalModels/specie/lnInclude/specieThermoI.H at line 72
    Maximum number of iterations exceeded.  T0 = 10000 F = 8.03586e+06 dFdT = 1007

    From function specieThermo<thermo>::T(scalar f, scalar T0, scalar (specieThermo<thermo>::*F)(const scalar) const, scalar (specieThermo<thermo>::*dFdT)(const scalar) const) const
    in file /opt/foam/foam-extend-4.0/src/thermophysicalModels/specie/lnInclude/specieThermoI.H at line 72
    Maximum number of iterations exceeded.  T0 = 10000 F = 8.03586e+06 dFdT = 1007

    From function specieThermo<thermo>::T(scalar f, scalar T0, scalar (specieThermo<thermo>::*F)(const scalar) const, scalar (specieThermo<thermo>::*dFdT)(const scalar) const) const
    in file /opt/foam/foam-extend-4.0/src/thermophysicalModels/specie/lnInclude/specieThermoI.H at line 72
    Maximum number of iterations exceeded.  T0 = 7541.67 F = 5.56032e+06 dFdT = 1007

    From function specieThermo<thermo>::T(scalar f, scalar T0, scalar (specieThermo<thermo>::*F)(const scalar) const, scalar (specieThermo<thermo>::*dFdT)(const scalar) const) const
    in file /opt/foam/foam-extend-4.0/src/thermophysicalModels/specie/lnInclude/specieThermoI.H at line 72
    Maximum number of iterations exceeded.  T0 = 10000 F = 8.03586e+06 dFdT = 1007

    From function specieThermo<thermo>::T(scalar f, scalar T0, scalar (specieThermo<thermo>::*F)(const scalar) const, scalar (specieThermo<thermo>::*dFdT)(const scalar) const) const
    in file /opt/foam/foam-extend-4.0/src/thermophysicalModels/specie/lnInclude/specieThermoI.H at line 72
    Maximum number of iterations exceeded.  T0 = 10000 F = 8.03586e+06 dFdT = 1007

    From function specieThermo<thermo>::T(scalar f, scalar T0, scalar (specieThermo<thermo>::*F)(const scalar) const, scalar (specieThermo<thermo>::*dFdT)(const scalar) const) const
    in file /opt/foam/foam-extend-4.0/src/thermophysicalModels/specie/lnInclude/specieThermoI.H at line 72
    Maximum number of iterations exceeded.  T0 = 10000 F = 8.03586e+06 dFdT = 1007

    From function specieThermo<thermo>::T(scalar f, scalar T0, scalar (specieThermo<thermo>::*F)(const scalar) const, scalar (specieThermo<thermo>::*dFdT)(const scalar) const) const
    in file /opt/foam/foam-extend-4.0/src/thermophysicalModels/specie/lnInclude/specieThermoI.H at line 72
    Maximum number of iterations exceeded.  T0 = 10000 F = 8.03586e+06 dFdT = 1007

    From function specieThermo<thermo>::T(scalar f, scalar T0, scalar (specieThermo<thermo>::*F)(const scalar) const, scalar (specieThermo<thermo>::*dFdT)(const scalar) const) const
    in file /opt/foam/foam-extend-4.0/src/thermophysicalModels/specie/lnInclude/specieThermoI.H at line 72
    Maximum number of iterations exceeded.  T0 = 10000 F = 8.03586e+06 dFdT = 1007

    From function specieThermo<thermo>::T(scalar f, scalar T0, scalar (specieThermo<thermo>::*F)(const scalar) const, scalar (specieThermo<thermo>::*dFdT)(const scalar) const) const
    in file /opt/foam/foam-extend-4.0/src/thermophysicalModels/specie/lnInclude/specieThermoI.H at line 72
    Maximum number of iterations exceeded.  T0 = 10000 F = 8.03586e+06 dFdT = 1007

    From function specieThermo<thermo>::T(scalar f, scalar T0, scalar (specieThermo<thermo>::*F)(const scalar) const, scalar (specieThermo<thermo>::*dFdT)(const scalar) const) const
    in file /opt/foam/foam-extend-4.0/src/thermophysicalModels/specie/lnInclude/specieThermoI.H at line 72
    Maximum number of iterations exceeded.  T0 = 10000 F = 8.03586e+06 dFdT = 1007

    From function specieThermo<thermo>::T(scalar f, scalar T0, scalar (specieThermo<thermo>::*F)(const scalar) const, scalar (specieThermo<thermo>::*dFdT)(const scalar) const) const
    in file /opt/foam/foam-extend-4.0/src/thermophysicalModels/specie/lnInclude/specieThermoI.H at line 72
    Maximum number of iterations exceeded.  T0 = 7541.67 F = 5.56032e+06 dFdT = 1007
bounding rho, min: -8.27509e+13 max: 6.26543e+13 average: -7988.88
new min: 0.001
new max: 10000
bounding p, min: 0.000287699 max: 2.87699e+10 average: 5.25337e+08
new min: 431.561
new max: 1e+07
diagonal:  Solving for rho, Initial residual = 0, Final residual = 0, No Iterations 0
diagonal:  Solving for rhoUx, Initial residual = 0, Final residual = 0, No Iterations 0
diagonal:  Solving for rhoUy, Initial residual = 0, Final residual = 0, No Iterations 0
diagonal:  Solving for rhoE, Initial residual = 0, Final residual = 0, No Iterations 0
bounding h, min: -4.83845e+18 max: 4.9595e+15 average: -1.71129e+16
new min: 1.007
new max: 1.007e+07

    From function specieThermo<thermo>::T(scalar f, scalar T0, scalar (specieThermo<thermo>::*F)(const scalar) const, scalar (specieThermo<thermo>::*dFdT)(const scalar) const) const
    in file /opt/foam/foam-extend-4.0/src/thermophysicalModels/specie/lnInclude/specieThermoI.H at line 72
    Maximum number of iterations exceeded.  T0 = 10000 F = 8.03586e+06 dFdT = 1007

    From function specieThermo<thermo>::T(scalar f, scalar T0, scalar (specieThermo<thermo>::*F)(const scalar) const, scalar (specieThermo<thermo>::*dFdT)(const scalar) const) const
    in file /opt/foam/foam-extend-4.0/src/thermophysicalModels/specie/lnInclude/specieThermoI.H at line 72
    Maximum number of iterations exceeded.  T0 = 7541.67 F = 5.56032e+06 dFdT = 1007

    From function specieThermo<thermo>::T(scalar f, scalar T0, scalar (specieThermo<thermo>::*F)(const scalar) const, scalar (specieThermo<thermo>::*dFdT)(const scalar) const) const
    in file /opt/foam/foam-extend-4.0/src/thermophysicalModels/specie/lnInclude/specieThermoI.H at line 72
    Maximum number of iterations exceeded.  T0 = 10000 F = 8.03586e+06 dFdT = 1007

    From function specieThermo<thermo>::T(scalar f, scalar T0, scalar (specieThermo<thermo>::*F)(const scalar) const, scalar (specieThermo<thermo>::*dFdT)(const scalar) const) const
    in file /opt/foam/foam-extend-4.0/src/thermophysicalModels/specie/lnInclude/specieThermoI.H at line 72
    Maximum number of iterations exceeded.  T0 = 7541.67 F = 5.56032e+06 dFdT = 1007

    From function specieThermo<thermo>::T(scalar f, scalar T0, scalar (specieThermo<thermo>::*F)(const scalar) const, scalar (specieThermo<thermo>::*dFdT)(const scalar) const) const
    in file /opt/foam/foam-extend-4.0/src/thermophysicalModels/specie/lnInclude/specieThermoI.H at line 72
    Maximum number of iterations exceeded.  T0 = 10000 F = 8.03586e+06 dFdT = 1007

    From function specieThermo<thermo>::T(scalar f, scalar T0, scalar (specieThermo<thermo>::*F)(const scalar) const, scalar (specieThermo<thermo>::*dFdT)(const scalar) const) const
    in file /opt/foam/foam-extend-4.0/src/thermophysicalModels/specie/lnInclude/specieThermoI.H at line 72
    Maximum number of iterations exceeded.  T0 = 10000 F = 8.03586e+06 dFdT = 1007

    From function specieThermo<thermo>::T(scalar f, scalar T0, scalar (specieThermo<thermo>::*F)(const scalar) const, scalar (specieThermo<thermo>::*dFdT)(const scalar) const) const
    in file /opt/foam/foam-extend-4.0/src/thermophysicalModels/specie/lnInclude/specieThermoI.H at line 72
    Maximum number of iterations exceeded.  T0 = 10000 F = 8.03586e+06 dFdT = 1007

    From function specieThermo<thermo>::T(scalar f, scalar T0, scalar (specieThermo<thermo>::*F)(const scalar) const, scalar (specieThermo<thermo>::*dFdT)(const scalar) const) const
    in file /opt/foam/foam-extend-4.0/src/thermophysicalModels/specie/lnInclude/specieThermoI.H at line 72
    Maximum number of iterations exceeded.  T0 = 7541.67 F = 5.56032e+06 dFdT = 1007

    From function specieThermo<thermo>::T(scalar f, scalar T0, scalar (specieThermo<thermo>::*F)(const scalar) const, scalar (specieThermo<thermo>::*dFdT)(const scalar) const) const
    in file /opt/foam/foam-extend-4.0/src/thermophysicalModels/specie/lnInclude/specieThermoI.H at line 72
    Maximum number of iterations exceeded.  T0 = 10000 F = 8.03586e+06 dFdT = 1007

    From function specieThermo<thermo>::T(scalar f, scalar T0, scalar (specieThermo<thermo>::*F)(const scalar) const, scalar (specieThermo<thermo>::*dFdT)(const scalar) const) const
    in file /opt/foam/foam-extend-4.0/src/thermophysicalModels/specie/lnInclude/specieThermoI.H at line 72
    Maximum number of iterations exceeded.  T0 = 7573.44 F = 5.59231e+06 dFdT = 1007

    From function specieThermo<thermo>::T(scalar f, scalar T0, scalar (specieThermo<thermo>::*F)(const scalar) const, scalar (specieThermo<thermo>::*dFdT)(const scalar) const) const
    in file /opt/foam/foam-extend-4.0/src/thermophysicalModels/specie/lnInclude/specieThermoI.H at line 72
    Maximum number of iterations exceeded.  T0 = 10000 F = 8.03586e+06 dFdT = 1007

    From function specieThermo<thermo>::T(scalar f, scalar T0, scalar (specieThermo<thermo>::*F)(const scalar) const, scalar (specieThermo<thermo>::*dFdT)(const scalar) const) const
    in file /opt/foam/foam-extend-4.0/src/thermophysicalModels/specie/lnInclude/specieThermoI.H at line 72
    Maximum number of iterations exceeded.  T0 = 7541.67 F = 5.56032e+06 dFdT = 1007

    From function specieThermo<thermo>::T(scalar f, scalar T0, scalar (specieThermo<thermo>::*F)(const scalar) const, scalar (specieThermo<thermo>::*dFdT)(const scalar) const) const
    in file /opt/foam/foam-extend-4.0/src/thermophysicalModels/specie/lnInclude/specieThermoI.H at line 72
    Maximum number of iterations exceeded.  T0 = 10000 F = 8.03586e+06 dFdT = 1007

    From function specieThermo<thermo>::T(scalar f, scalar T0, scalar (specieThermo<thermo>::*F)(const scalar) const, scalar (specieThermo<thermo>::*dFdT)(const scalar) const) const
    in file /opt/foam/foam-extend-4.0/src/thermophysicalModels/specie/lnInclude/specieThermoI.H at line 72
    Maximum number of iterations exceeded.  T0 = 7541.67 F = 5.56032e+06 dFdT = 1007

    From function specieThermo<thermo>::T(scalar f, scalar T0, scalar (specieThermo<thermo>::*F)(const scalar) const, scalar (specieThermo<thermo>::*dFdT)(const scalar) const) const
    in file /opt/foam/foam-extend-4.0/src/thermophysicalModels/specie/lnInclude/specieThermoI.H at line 72
    Maximum number of iterations exceeded.  T0 = 10000 F = 8.03586e+06 dFdT = 1007

    From function specieThermo<thermo>::T(scalar f, scalar T0, scalar (specieThermo<thermo>::*F)(const scalar) const, scalar (specieThermo<thermo>::*dFdT)(const scalar) const) const
    in file /opt/foam/foam-extend-4.0/src/thermophysicalModels/specie/lnInclude/specieThermoI.H at line 72
    Maximum number of iterations exceeded.  T0 = 10000 F = 8.03586e+06 dFdT = 1007

    From function specieThermo<thermo>::T(scalar f, scalar T0, scalar (specieThermo<thermo>::*F)(const scalar) const, scalar (specieThermo<thermo>::*dFdT)(const scalar) const) const
    in file /opt/foam/foam-extend-4.0/src/thermophysicalModels/specie/lnInclude/specieThermoI.H at line 72
    Maximum number of iterations exceeded.  T0 = 10000 F = 8.03586e+06 dFdT = 1007

    From function specieThermo<thermo>::T(scalar f, scalar T0, scalar (specieThermo<thermo>::*F)(const scalar) const, scalar (specieThermo<thermo>::*dFdT)(const scalar) const) const
    in file /opt/foam/foam-extend-4.0/src/thermophysicalModels/specie/lnInclude/specieThermoI.H at line 72
[...]

    From function specieThermo<thermo>::T(scalar f, scalar T0, scalar (specieThermo<thermo>::*F)(const scalar) const, scalar (specieThermo<thermo>::*dFdT)(const scalar) const) const
    in file /opt/foam/foam-extend-4.0/src/thermophysicalModels/specie/lnInclude/specieThermoI.H at line 72
    Maximum number of iterations exceeded.  T0 = 7890.75 F = 5.91184e+06 dFdT = 1007

    From function specieThermo<thermo>::T(scalar f, scalar T0, scalar (specieThermo<thermo>::*F)(const scalar) const, scalar (specieThermo<thermo>::*dFdT)(const scalar) const) const
    in file /opt/foam/foam-extend-4.0/src/thermophysicalModels/specie/lnInclude/specieThermoI.H at line 72
    Maximum number of iterations exceeded.  T0 = 7541.67 F = 5.56032e+06 dFdT = 1007

    From function specieThermo<thermo>::T(scalar f, scalar T0, scalar (specieThermo<thermo>::*F)(const scalar) const, scalar (specieThermo<thermo>::*dFdT)(const scalar) const) const
    in file /opt/foam/foam-extend-4.0/src/thermophysicalModels/specie/lnInclude/specieThermoI.H at line 72
    Maximum number of iterations exceeded.  T0 = 10000 F = 8.03586e+06 dFdT = 1007

    From function specieThermo<thermo>::T(scalar f, scalar T0, scalar (specieThermo<thermo>::*F)(const scalar) const, scalar (specieThermo<thermo>::*dFdT)(const scalar) const) const
    in file /opt/foam/foam-extend-4.0/src/thermophysicalModels/specie/lnInclude/specieThermoI.H at line 72
    Maximum number of iterations exceeded.  T0 = 7541.67 F = 5.56032e+06 dFdT = 1007

    From function specieThermo<thermo>::T(scalar f, scalar T0, scalar (specieThermo<thermo>::*F)(const scalar) const, scalar (specieThermo<thermo>::*dFdT)(const scalar) const) const
    in file /opt/foam/foam-extend-4.0/src/thermophysicalModels/specie/lnInclude/specieThermoI.H at line 72
    Maximum number of iterations exceeded.  T0 = 7541.67 F = 5.56032e+06 dFdT = 1007

    From function specieThermo<thermo>::T(scalar f, scalar T0, scalar (specieThermo<thermo>::*F)(const scalar) const, scalar (specieThermo<thermo>::*dFdT)(const scalar) const) const
    in file /opt/foam/foam-extend-4.0/src/thermophysicalModels/specie/lnInclude/specieThermoI.H at line 72
    Maximum number of iterations exceeded.  T0 = 10000 F = 8.03586e+06 dFdT = 1007

    From function specieThermo<thermo>::T(scalar f, scalar T0, scalar (specieThermo<thermo>::*F)(const scalar) const, scalar (specieThermo<thermo>::*dFdT)(const scalar) const) const
    in file /opt/foam/foam-extend-4.0/src/thermophysicalModels/specie/lnInclude/specieThermoI.H at line 72
    Maximum number of iterations exceeded.  T0 = 10000 F = 8.03586e+06 dFdT = 1007

    From function specieThermo<thermo>::T(scalar f, scalar T0, scalar (specieThermo<thermo>::*F)(const scalar) const, scalar (specieThermo<thermo>::*dFdT)(const scalar) const) const
    in file /opt/foam/foam-extend-4.0/src/thermophysicalModels/specie/lnInclude/specieThermoI.H at line 72
    Maximum number of iterations exceeded.  T0 = 10000 F = 8.03586e+06 dFdT = 1007

    From function specieThermo<thermo>::T(scalar f, scalar T0, scalar (specieThermo<thermo>::*F)(const scalar) const, scalar (specieThermo<thermo>::*dFdT)(const scalar) const) const
    in file /opt/foam/foam-extend-4.0/src/thermophysicalModels/specie/lnInclude/specieThermoI.H at line 72
    Maximum number of iterations exceeded.  T0 = 7541.67 F = 5.56032e+06 dFdT = 1007

    From function specieThermo<thermo>::T(scalar f, scalar T0, scalar (specieThermo<thermo>::*F)(const scalar) const, scalar (specieThermo<thermo>::*dFdT)(const scalar) const) const
    in file /opt/foam/foam-extend-4.0/src/thermophysicalModels/specie/lnInclude/specieThermoI.H at line 72
    Maximum number of iterations exceeded.  T0 = 8616.76 F = 6.64294e+06 dFdT = 1007

    From function specieThermo<thermo>::T(scalar f, scalar T0, scalar (specieThermo<thermo>::*F)(const scalar) const, scalar (specieThermo<thermo>::*dFdT)(const scalar) const) const
    in file /opt/foam/foam-extend-4.0/src/thermophysicalModels/specie/lnInclude/specieThermoI.H at line 72
    Maximum number of iterations exceeded.  T0 = 4373.28 F = 2.36975e+06 dFdT = 1007

    From function specieThermo<thermo>::T(scalar f, scalar T0, scalar (specieThermo<thermo>::*F)(const scalar) const, scalar (specieThermo<thermo>::*dFdT)(const scalar) const) const
    in file /opt/foam/foam-extend-4.0/src/thermophysicalModels/specie/lnInclude/specieThermoI.H at line 72
    Maximum number of iterations exceeded.  T0 = 8922.47 F = 6.95078e+06 dFdT = 1007

    From function specieThermo<thermo>::T(scalar f, scalar T0, scalar (specieThermo<thermo>::*F)(const scalar) const, scalar (specieThermo<thermo>::*dFdT)(const scalar) const) const
    in file /opt/foam/foam-extend-4.0/src/thermophysicalModels/specie/lnInclude/specieThermoI.H at line 72
    Maximum number of iterations exceeded.  T0 = 7890.75 F = 5.91184e+06 dFdT = 1007

    From function specieThermo<thermo>::T(scalar f, scalar T0, scalar (specieThermo<thermo>::*F)(const scalar) const, scalar (specieThermo<thermo>::*dFdT)(const scalar) const) const
    in file /opt/foam/foam-extend-4.0/src/thermophysicalModels/specie/lnInclude/specieThermoI.H at line 72
    Maximum number of iterations exceeded.  T0 = 7541.67 F = 5.56032e+06 dFdT = 1007

    From function specieThermo<thermo>::T(scalar f, scalar T0, scalar (specieThermo<thermo>::*F)(const scalar) const, scalar (specieThermo<thermo>::*dFdT)(const scalar) const) const
    in file /opt/foam/foam-extend-4.0/src/thermophysicalModels/specie/lnInclude/specieThermoI.H at line 72
    Maximum number of iterations exceeded.  T0 = 10000 F = 8.03586e+06 dFdT = 1007

    From function specieThermo<thermo>::T(scalar f, scalar T0, scalar (specieThermo<thermo>::*F)(const scalar) const, scalar (specieThermo<thermo>::*dFdT)(const scalar) const) const
    in file /opt/foam/foam-extend-4.0/src/thermophysicalModels/specie/lnInclude/specieThermoI.H at line 72
    Maximum number of iterations exceeded.  T0 = 7541.67 F = 5.56032e+06 dFdT = 1007

    From function specieThermo<thermo>::T(scalar f, scalar T0, scalar (specieThermo<thermo>::*F)(const scalar) const, scalar (specieThermo<thermo>::*dFdT)(const scalar) const) const
    in file /opt/foam/foam-extend-4.0/src/thermophysicalModels/specie/lnInclude/specieThermoI.H at line 72
    Maximum number of iterations exceeded.  T0 = 7541.67 F = 5.56032e+06 dFdT = 1007

    From function specieThermo<thermo>::T(scalar f, scalar T0, scalar (specieThermo<thermo>::*F)(const scalar) const, scalar (specieThermo<thermo>::*dFdT)(const scalar) const) const
    in file /opt/foam/foam-extend-4.0/src/thermophysicalModels/specie/lnInclude/specieThermoI.H at line 72
    Maximum number of iterations exceeded.  T0 = 10000 F = 8.03586e+06 dFdT = 1007

    From function specieThermo<thermo>::T(scalar f, scalar T0, scalar (specieThermo<thermo>::*F)(const scalar) const, scalar (specieThermo<thermo>::*dFdT)(const scalar) const) const
    in file /opt/foam/foam-extend-4.0/src/thermophysicalModels/specie/lnInclude/specieThermoI.H at line 72
    Maximum number of iterations exceeded.  T0 = 10000 F = 8.03586e+06 dFdT = 1007

    From function specieThermo<thermo>::T(scalar f, scalar T0, scalar (specieThermo<thermo>::*F)(const scalar) const, scalar (specieThermo<thermo>::*dFdT)(const scalar) const) const
    in file /opt/foam/foam-extend-4.0/src/thermophysicalModels/specie/lnInclude/specieThermoI.H at line 72
    Maximum number of iterations exceeded.  T0 = 10000 F = 8.03586e+06 dFdT = 1007

    From function specieThermo<thermo>::T(scalar f, scalar T0, scalar (specieThermo<thermo>::*F)(const scalar) const, scalar (specieThermo<thermo>::*dFdT)(const scalar) const) const
    in file /opt/foam/foam-extend-4.0/src/thermophysicalModels/specie/lnInclude/specieThermoI.H at line 72
    Maximum number of iterations exceeded.  T0 = 7541.67 F = 5.56032e+06 dFdT = 1007

    From function specieThermo<thermo>::T(scalar f, scalar T0, scalar (specieThermo<thermo>::*F)(const scalar) const, scalar (specieThermo<thermo>::*dFdT)(const scalar) const) const
    in file /opt/foam/foam-extend-4.0/src/thermophysicalModels/specie/lnInclude/specieThermoI.H at line 72
    Maximum number of iterations exceeded.  T0 = 8616.76 F = 6.64294e+06 dFdT = 1007

    From function specieThermo<thermo>::T(scalar f, scalar T0, scalar (specieThermo<thermo>::*F)(const scalar) const, scalar (specieThermo<thermo>::*dFdT)(const scalar) const) const
    in file /opt/foam/foam-extend-4.0/src/thermophysicalModels/specie/lnInclude/specieThermoI.H at line 72
    Maximum number of iterations exceeded.  T0 = 4373.28 F = 2.36975e+06 dFdT = 1007

    From function specieThermo<thermo>::T(scalar f, scalar T0, scalar (specieThermo<thermo>::*F)(const scalar) const, scalar (specieThermo<thermo>::*dFdT)(const scalar) const) const
    in file /opt/foam/foam-extend-4.0/src/thermophysicalModels/specie/lnInclude/specieThermoI.H at line 72
    Maximum number of iterations exceeded.  T0 = 8922.47 F = 6.95078e+06 dFdT = 1007
bounding rho, min: -2.77796e+72 max: 2.31001e+72 average: -4.93943e+61
new min: 1.28937
new max: 10000
bounding p, min: 2350.48 max: 2.87699e+10 average: 5.94971e+08
new max: 1e+07
diagonal:  Solving for rho, Initial residual = 0, Final residual = 0, No Iterations 0
diagonal:  Solving for rhoUx, Initial residual = 0, Final residual = 0, No Iterations 0
diagonal:  Solving for rhoUy, Initial residual = 0, Final residual = 0, No Iterations 0
diagonal:  Solving for rhoE, Initial residual = 0, Final residual = 0, No Iterations 0
bounding h, min: -7.74102e+142 max: 5.89444e+137 average: -2.71022e+140
new min: 1.007
new max: 1.007e+07

    From function specieThermo<thermo>::T(scalar f, scalar T0, scalar (specieThermo<thermo>::*F)(const scalar) const, scalar (specieThermo<thermo>::*dFdT)(const scalar) const) const
    in file /opt/foam/foam-extend-4.0/src/thermophysicalModels/specie/lnInclude/specieThermoI.H at line 72
    Maximum number of iterations exceeded.  T0 = 8068.43 F = 6.09077e+06 dFdT = 1007

    From function specieThermo<thermo>::T(scalar f, scalar T0, scalar (specieThermo<thermo>::*F)(const scalar) const, scalar (specieThermo<thermo>::*dFdT)(const scalar) const) const
    in file /opt/foam/foam-extend-4.0/src/thermophysicalModels/specie/lnInclude/specieThermoI.H at line 72
    Maximum number of iterations exceeded.  T0 = 7541.67 F = 5.56032e+06 dFdT = 1007

    From function specieThermo<thermo>::T(scalar f, scalar T0, scalar (specieThermo<thermo>::*F)(const scalar) const, scalar (specieThermo<thermo>::*dFdT)(const scalar) const) const
    in file /opt/foam/foam-extend-4.0/src/thermophysicalModels/specie/lnInclude/specieThermoI.H at line 72
    Maximum number of iterations exceeded.  T0 = 10000 F = 8.03586e+06 dFdT = 1007

    From function specieThermo<thermo>::T(scalar f, scalar T0, scalar (specieThermo<thermo>::*F)(const scalar) const, scalar (specieThermo<thermo>::*dFdT)(const scalar) const) const
    in file /opt/foam/foam-extend-4.0/src/thermophysicalModels/specie/lnInclude/specieThermoI.H at line 72
    Maximum number of iterations exceeded.  T0 = 10000 F = 8.03586e+06 dFdT = 1007

    From function specieThermo<thermo>::T(scalar f, scalar T0, scalar (specieThermo<thermo>::*F)(const scalar) const, scalar (specieThermo<thermo>::*dFdT)(const scalar) const) const
    in file /opt/foam/foam-extend-4.0/src/thermophysicalModels/specie/lnInclude/specieThermoI.H at line 72
    Maximum number of iterations exceeded.  T0 = 10000 F = 8.03586e+06 dFdT = 1007

    From function specieThermo<thermo>::T(scalar f, scalar T0, scalar (specieThermo<thermo>::*F)(const scalar) const, scalar (specieThermo<thermo>::*dFdT)(const scalar) const) const
    in file /opt/foam/foam-extend-4.0/src/thermophysicalModels/specie/lnInclude/specieThermoI.H at line 72
    Maximum number of iterations exceeded.  T0 = 7541.67 F = 5.56032e+06 dFdT = 1007

    From function specieThermo<thermo>::T(scalar f, scalar T0, scalar (specieThermo<thermo>::*F)(const scalar) const, scalar (specieThermo<thermo>::*dFdT)(const scalar) const) const
    in file /opt/foam/foam-extend-4.0/src/thermophysicalModels/specie/lnInclude/specieThermoI.H at line 72
    Maximum number of iterations exceeded.  T0 = 10000 F = 8.03586e+06 dFdT = 1007

    From function specieThermo<thermo>::T(scalar f, scalar T0, scalar (specieThermo<thermo>::*F)(const scalar) const, scalar (specieThermo<thermo>::*dFdT)(const scalar) const) const
    in file /opt/foam/foam-extend-4.0/src/thermophysicalModels/specie/lnInclude/specieThermoI.H at line 72
    Maximum number of iterations exceeded.  T0 = 7541.67 F = 5.56032e+06 dFdT = 1007

    From function specieThermo<thermo>::T(scalar f, scalar T0, scalar (specieThermo<thermo>::*F)(const scalar) const, scalar (specieThermo<thermo>::*dFdT)(const scalar) const) const
    in file /opt/foam/foam-extend-4.0/src/thermophysicalModels/specie/lnInclude/specieThermoI.H at line 72
    Maximum number of iterations exceeded.  T0 = 9280.35 F = 7.31117e+06 dFdT = 1007

    From function specieThermo<thermo>::T(scalar f, scalar T0, scalar (specieThermo<thermo>::*F)(const scalar) const, scalar (specieThermo<thermo>::*dFdT)(const scalar) const) const
    in file /opt/foam/foam-extend-4.0/src/thermophysicalModels/specie/lnInclude/specieThermoI.H at line 72
    Maximum number of iterations exceeded.  T0 = 8068.43 F = 6.09077e+06 dFdT = 1007

    From function specieThermo<thermo>::T(scalar f, scalar T0, scalar (specieThermo<thermo>::*F)(const scalar) const, scalar (specieThermo<thermo>::*dFdT)(const scalar) const) const
    in file /opt/foam/foam-extend-4.0/src/thermophysicalModels/specie/lnInclude/specieThermoI.H at line 72
    Maximum number of iterations exceeded.  T0 = 7541.67 F = 5.56032e+06 dFdT = 1007

    From function specieThermo<thermo>::T(scalar f, scalar T0, scalar (specieThermo<thermo>::*F)(const scalar) const, scalar (specieThermo<thermo>::*dFdT)(const scalar) const) const
    in file /opt/foam/foam-extend-4.0/src/thermophysicalModels/specie/lnInclude/specieThermoI.H at line 72
    Maximum number of iterations exceeded.  T0 = 10000 F = 8.03586e+06 dFdT = 1007

    From function specieThermo<thermo>::T(scalar f, scalar T0, scalar (specieThermo<thermo>::*F)(const scalar) const, scalar (specieThermo<thermo>::*dFdT)(const scalar) const) const
    in file /opt/foam/foam-extend-4.0/src/thermophysicalModels/specie/lnInclude/specieThermoI.H at line 72
    Maximum number of iterations exceeded.  T0 = 10000 F = 8.03586e+06 dFdT = 1007

    From function specieThermo<thermo>::T(scalar f, scalar T0, scalar (specieThermo<thermo>::*F)(const scalar) const, scalar (specieThermo<thermo>::*dFdT)(const scalar) const) const
    in file /opt/foam/foam-extend-4.0/src/thermophysicalModels/specie/lnInclude/specieThermoI.H at line 72
    Maximum number of iterations exceeded.  T0 = 10000 F = 8.03586e+06 dFdT = 1007

    From function specieThermo<thermo>::T(scalar f, scalar T0, scalar (specieThermo<thermo>::*F)(const scalar) const, scalar (specieThermo<thermo>::*dFdT)(const scalar) const) const
    in file /opt/foam/foam-extend-4.0/src/thermophysicalModels/specie/lnInclude/specieThermoI.H at line 72
    Maximum number of iterations exceeded.  T0 = 7541.67 F = 5.56032e+06 dFdT = 1007

    From function specieThermo<thermo>::T(scalar f, scalar T0, scalar (specieThermo<thermo>::*F)(const scalar) const, scalar (specieThermo<thermo>::*dFdT)(const scalar) const) const
    in file /opt/foam/foam-extend-4.0/src/thermophysicalModels/specie/lnInclude/specieThermoI.H at line 72
    Maximum number of iterations exceeded.  T0 = 10000 F = 8.03586e+06 dFdT = 1007

    From function specieThermo<thermo>::T(scalar f, scalar T0, scalar (specieThermo<thermo>::*F)(const scalar) const, scalar (specieThermo<thermo>::*dFdT)(const scalar) const) const
    in file /opt/foam/foam-extend-4.0/src/thermophysicalModels/specie/lnInclude/specieThermoI.H at line 72
    Maximum number of iterations exceeded.  T0 = 7541.67 F = 5.56032e+06 dFdT = 1007

    From function specieThermo<thermo>::T(scalar f, scalar T0, scalar (specieThermo<thermo>::*F)(const scalar) const, scalar (specieThermo<thermo>::*dFdT)(const scalar) const) const
    in file /opt/foam/foam-extend-4.0/src/thermophysicalModels/specie/lnInclude/specieThermoI.H at line 72
    Maximum number of iterations exceeded.  T0 = 9280.35 F = 7.31117e+06 dFdT = 1007

    From function specieThermo<thermo>::T(scalar f, scalar T0, scalar (specieThermo<thermo>::*F)(const scalar) const, scalar (specieThermo<thermo>::*dFdT)(const scalar) const) const
    in file /opt/foam/foam-extend-4.0/src/thermophysicalModels/specie/lnInclude/specieThermoI.H at line 72
    Maximum number of iterations exceeded.  T0 = 8068.43 F = 6.09077e+06 dFdT = 1007

    From function specieThermo<thermo>::T(scalar f, scalar T0, scalar (specieThermo<thermo>::*F)(const scalar) const, scalar (specieThermo<thermo>::*dFdT)(const scalar) const) const
    in file /opt/foam/foam-extend-4.0/src/thermophysicalModels/specie/lnInclude/specieThermoI.H at line 72
    Maximum number of iterations exceeded.  T0 = 7541.67 F = 5.56032e+06 dFdT = 1007

    From function specieThermo<thermo>::T(scalar f, scalar T0, scalar (specieThermo<thermo>::*F)(const scalar) const, scalar (specieThermo<thermo>::*dFdT)(const scalar) const) const
    in file /opt/foam/foam-extend-4.0/src/thermophysicalModels/specie/lnInclude/specieThermoI.H at line 72
    Maximum number of iterations exceeded.  T0 = 10000 F = 8.03586e+06 dFdT = 1007

    From function specieThermo<thermo>::T(scalar f, scalar T0, scalar (specieThermo<thermo>::*F)(const scalar) const, scalar (specieThermo<thermo>::*dFdT)(const scalar) const) const
    in file /opt/foam/foam-extend-4.0/src/thermophysicalModels/specie/lnInclude/specieThermoI.H at line 72
    Maximum number of iterations exceeded.  T0 = 10000 F = 8.03586e+06 dFdT = 1007

    From function specieThermo<thermo>::T(scalar f, scalar T0, scalar (specieThermo<thermo>::*F)(const scalar) const, scalar (specieThermo<thermo>::*dFdT)(const scalar) const) const
    in file /opt/foam/foam-extend-4.0/src/thermophysicalModels/specie/lnInclude/specieThermoI.H at line 72
    Maximum number of iterations exceeded.  T0 = 10000 F = 8.03586e+06 dFdT = 1007

    From function specieThermo<thermo>::T(scalar f, scalar T0, scalar (specieThermo<thermo>::*F)(const scalar) const, scalar (specieThermo<thermo>::*dFdT)(const scalar) const) const
    in file /opt/foam/foam-extend-4.0/src/thermophysicalModels/specie/lnInclude/specieThermoI.H at line 72
    Maximum number of iterations exceeded.  T0 = 7541.67 F = 5.56032e+06 dFdT = 1007

    From function specieThermo<thermo>::T(scalar f, scalar T0, scalar (specieThermo<thermo>::*F)(const scalar) const, scalar (specieThermo<thermo>::*dFdT)(const scalar) const) const
    in file /opt/foam/foam-extend-4.0/src/thermophysicalModels/specie/lnInclude/specieThermoI.H at line 72
    Maximum number of iterations exceeded.  T0 = 10000 F = 8.03586e+06 dFdT = 1007

    From function specieThermo<thermo>::T(scalar f, scalar T0, scalar (specieThermo<thermo>::*F)(const scalar) const, scalar (specieThermo<thermo>::*dFdT)(const scalar) const) const
    in file /opt/foam/foam-extend-4.0/src/thermophysicalModels/specie/lnInclude/specieThermoI.H at line 72
    Maximum number of iterations exceeded.  T0 = 7541.67 F = 5.56032e+06 dFdT = 1007

    From function specieThermo<thermo>::T(scalar f, scalar T0, scalar (specieThermo<thermo>::*F)(const scalar) const, scalar (specieThermo<thermo>::*dFdT)(const scalar) const) const
    in file /opt/foam/foam-extend-4.0/src/thermophysicalModels/specie/lnInclude/specieThermoI.H at line 72
    Maximum number of iterations exceeded.  T0 = 9280.35 F = 7.31117e+06 dFdT = 1007
bounding rho, min: -1.07979e+73 max: 1.27545e+73 average: 3.28813e+62
new min: 0.001
new max: 10000
bounding p, min: 0.000287699 max: 2.87699e+10 average: 4.88811e+08
new min: 2169.73
new max: 1e+07
    ExecutionTime = 0.39 s


 end 
