/*---------------------------------------------------------------------------*\
| =========                 |                                                 |
| \\      /  F ield         | foam-extend: Open Source CFD                    |
|  \\    /   O peration     | Version:     4.0                                |
|   \\  /    A nd           | Web:         http://www.foam-extend.org         |
|    \\/     M anipulation  | For copyright notice see file Copyright         |
\*---------------------------------------------------------------------------*/
Build    : 4.0-268bb07d15d8
Exec     : dbnsFoam
Date     : Apr 26 2022
Time     : 12:14:48
Host     : node358.pi.sjtu.edu.cn
PID      : 1636976
CtrlDict : "/dssg/home/acct-medgm/medgm/06-DLR-buffet/Workspace/test_cases/03-dbns-shocktube/00-test-1000-roe-firstOrder/system/controlDict"
Case     : /dssg/home/acct-medgm/medgm/06-DLR-buffet/Workspace/test_cases/03-dbns-shocktube/00-test-1000-roe-firstOrder
nProcs   : 1
SigFpe   : Enabling floating point exception trapping (FOAM_SIGFPE).

// * * * * * * * * * * * * * * * * * * * * * * * * * * * * * * * * * * * * * //
Create time

Create mesh for time = 0

Reading thermophysical properties

Selecting thermodynamics package hPsiThermo<pureMixture<constTransport<specieThermo<hConstThermo<perfectGas>>>>>
Reading field rho

Reading field U

Selecting numericFlux roeFluxfirstOrderLimiter

Starting time loop

Courant Number mean: 0 max: 0 velocity magnitude: 0

 Time = 1e-05
diagonal:  Solving for rho, Initial residual = 0, Final residual = 0, No Iterations 0
diagonal:  Solving for rhoUx, Initial residual = 0, Final residual = 0, No Iterations 0
diagonal:  Solving for rhoUy, Initial residual = 0, Final residual = 0, No Iterations 0
diagonal:  Solving for rhoE, Initial residual = 0, Final residual = 0, No Iterations 0
diagonal:  Solving for rho, Initial residual = 0, Final residual = 0, No Iterations 0
diagonal:  Solving for rhoUx, Initial residual = 0, Final residual = 0, No Iterations 0
diagonal:  Solving for rhoUy, Initial residual = 0, Final residual = 0, No Iterations 0
diagonal:  Solving for rhoE, Initial residual = 0, Final residual = 0, No Iterations 0
diagonal:  Solving for rho, Initial residual = 0, Final residual = 0, No Iterations 0
diagonal:  Solving for rhoUx, Initial residual = 0, Final residual = 0, No Iterations 0
diagonal:  Solving for rhoUy, Initial residual = 0, Final residual = 0, No Iterations 0
diagonal:  Solving for rhoE, Initial residual = 0, Final residual = 0, No Iterations 0
diagonal:  Solving for rho, Initial residual = 0, Final residual = 0, No Iterations 0
diagonal:  Solving for rhoUx, Initial residual = 0, Final residual = 0, No Iterations 0
diagonal:  Solving for rhoUy, Initial residual = 0, Final residual = 0, No Iterations 0
diagonal:  Solving for rhoE, Initial residual = 0, Final residual = 0, No Iterations 0
bounding h, min: -2.01177e+06 max: 336400 average: 272697
new min: 154033
    ExecutionTime = 0.03 s

Courant Number mean: 0.00585276 max: 1.23289 velocity magnitude: 123.289

 Time = 2e-05
diagonal:  Solving for rho, Initial residual = 0, Final residual = 0, No Iterations 0
diagonal:  Solving for rhoUx, Initial residual = 0, Final residual = 0, No Iterations 0
diagonal:  Solving for rhoUy, Initial residual = 0, Final residual = 0, No Iterations 0
diagonal:  Solving for rhoE, Initial residual = 0, Final residual = 0, No Iterations 0
bounding rho, min: -0.609294 max: 3.8681 average: 2.57873
new min: 1.28937
diagonal:  Solving for rho, Initial residual = 0, Final residual = 0, No Iterations 0
diagonal:  Solving for rhoUx, Initial residual = 0, Final residual = 0, No Iterations 0
diagonal:  Solving for rhoUy, Initial residual = 0, Final residual = 0, No Iterations 0
diagonal:  Solving for rhoE, Initial residual = 0, Final residual = 0, No Iterations 0
bounding h, min: -4.40366e+07 max: 456879 average: 230099
new min: 984.425
bounding rho, min: -1.00139 max: 4.05217 average: 2.57873
new min: 0.147852
diagonal:  Solving for rho, Initial residual = 0, Final residual = 0, No Iterations 0
diagonal:  Solving for rhoUx, Initial residual = 0, Final residual = 0, No Iterations 0
diagonal:  Solving for rhoUy, Initial residual = 0, Final residual = 0, No Iterations 0
diagonal:  Solving for rhoE, Initial residual = 0, Final residual = 0, No Iterations 0
bounding h, min: -1.50906e+09 max: 705167 average: -1.23917e+06
new min: 1.007
bounding rho, min: -76.723 max: 74.5462 average: 2.57873
new min: 0.396269
diagonal:  Solving for rho, Initial residual = 0, Final residual = 0, No Iterations 0
diagonal:  Solving for rhoUx, Initial residual = 0, Final residual = 0, No Iterations 0
diagonal:  Solving for rhoUy, Initial residual = 0, Final residual = 0, No Iterations 0
diagonal:  Solving for rhoE, Initial residual = 0, Final residual = 0, No Iterations 0
bounding h, min: -5.29467e+08 max: 751652 average: -303676
new min: 1.007
bounding rho, min: -19747.5 max: 18783.4 average: 2.57873
new min: 1.28937
new max: 6310.74
bounding p, min: 128.615 max: 1.78258e+07 average: 240878
new max: 7.86796e+06
    ExecutionTime = 0.04 s

Courant Number mean: 0.01076 max: 3.46799 velocity magnitude: 346.799

 Time = 3e-05
diagonal:  Solving for rho, Initial residual = 0, Final residual = 0, No Iterations 0
diagonal:  Solving for rhoUx, Initial residual = 0, Final residual = 0, No Iterations 0
diagonal:  Solving for rhoUy, Initial residual = 0, Final residual = 0, No Iterations 0
diagonal:  Solving for rhoE, Initial residual = 0, Final residual = 0, No Iterations 0
bounding h, min: -1.55561e+08 max: 8.60818e+06 average: 127246
new min: 1.007
bounding rho, min: -227027 max: 209996 average: 14.6295
new min: 1.28937
new max: 10000
bounding p, min: 24.7533 max: 2.45547e+10 average: 4.59159e+07
new max: 1e+07
diagonal:  Solving for rho, Initial residual = 0, Final residual = 0, No Iterations 0
diagonal:  Solving for rhoUx, Initial residual = 0, Final residual = 0, No Iterations 0
diagonal:  Solving for rhoUy, Initial residual = 0, Final residual = 0, No Iterations 0
diagonal:  Solving for rhoE, Initial residual = 0, Final residual = 0, No Iterations 0
bounding h, min: -9.21635e+09 max: 818329 average: -1.10198e+07
new min: 1.007

    From function specieThermo<thermo>::T(scalar f, scalar T0, scalar (specieThermo<thermo>::*F)(const scalar) const, scalar (specieThermo<thermo>::*dFdT)(const scalar) const) const
    in file /opt/foam/foam-extend-4.0/src/thermophysicalModels/specie/lnInclude/specieThermoI.H at line 72
    Maximum number of iterations exceeded.  T0 = 8548.34 F = 6.57404e+06 dFdT = 1007

    From function specieThermo<thermo>::T(scalar f, scalar T0, scalar (specieThermo<thermo>::*F)(const scalar) const, scalar (specieThermo<thermo>::*dFdT)(const scalar) const) const
    in file /opt/foam/foam-extend-4.0/src/thermophysicalModels/specie/lnInclude/specieThermoI.H at line 72
    Maximum number of iterations exceeded.  T0 = 2115.93 F = 96599 dFdT = 1007

    From function specieThermo<thermo>::T(scalar f, scalar T0, scalar (specieThermo<thermo>::*F)(const scalar) const, scalar (specieThermo<thermo>::*dFdT)(const scalar) const) const
    in file /opt/foam/foam-extend-4.0/src/thermophysicalModels/specie/lnInclude/specieThermoI.H at line 72
    Maximum number of iterations exceeded.  T0 = 4326.32 F = 2.32247e+06 dFdT = 1007

    From function specieThermo<thermo>::T(scalar f, scalar T0, scalar (specieThermo<thermo>::*F)(const scalar) const, scalar (specieThermo<thermo>::*dFdT)(const scalar) const) const
    in file /opt/foam/foam-extend-4.0/src/thermophysicalModels/specie/lnInclude/specieThermoI.H at line 72
    Maximum number of iterations exceeded.  T0 = 8548.34 F = 6.57404e+06 dFdT = 1007

    From function specieThermo<thermo>::T(scalar f, scalar T0, scalar (specieThermo<thermo>::*F)(const scalar) const, scalar (specieThermo<thermo>::*dFdT)(const scalar) const) const
    in file /opt/foam/foam-extend-4.0/src/thermophysicalModels/specie/lnInclude/specieThermoI.H at line 72
    Maximum number of iterations exceeded.  T0 = 2115.93 F = 96599 dFdT = 1007

    From function specieThermo<thermo>::T(scalar f, scalar T0, scalar (specieThermo<thermo>::*F)(const scalar) const, scalar (specieThermo<thermo>::*dFdT)(const scalar) const) const
    in file /opt/foam/foam-extend-4.0/src/thermophysicalModels/specie/lnInclude/specieThermoI.H at line 72
    Maximum number of iterations exceeded.  T0 = 4326.32 F = 2.32247e+06 dFdT = 1007

    From function specieThermo<thermo>::T(scalar f, scalar T0, scalar (specieThermo<thermo>::*F)(const scalar) const, scalar (specieThermo<thermo>::*dFdT)(const scalar) const) const
    in file /opt/foam/foam-extend-4.0/src/thermophysicalModels/specie/lnInclude/specieThermoI.H at line 72
    Maximum number of iterations exceeded.  T0 = 8548.34 F = 6.57404e+06 dFdT = 1007

    From function specieThermo<thermo>::T(scalar f, scalar T0, scalar (specieThermo<thermo>::*F)(const scalar) const, scalar (specieThermo<thermo>::*dFdT)(const scalar) const) const
    in file /opt/foam/foam-extend-4.0/src/thermophysicalModels/specie/lnInclude/specieThermoI.H at line 72
    Maximum number of iterations exceeded.  T0 = 2115.93 F = 96599 dFdT = 1007

    From function specieThermo<thermo>::T(scalar f, scalar T0, scalar (specieThermo<thermo>::*F)(const scalar) const, scalar (specieThermo<thermo>::*dFdT)(const scalar) const) const
    in file /opt/foam/foam-extend-4.0/src/thermophysicalModels/specie/lnInclude/specieThermoI.H at line 72
    Maximum number of iterations exceeded.  T0 = 4326.32 F = 2.32247e+06 dFdT = 1007
bounding rho, min: -1191.11 max: 6361.65 average: 14.6295
new min: 1.28937
bounding p, min: 111.595 max: 3.6174e+07 average: 268889
new max: 7.77249e+06
diagonal:  Solving for rho, Initial residual = 0, Final residual = 0, No Iterations 0
diagonal:  Solving for rhoUx, Initial residual = 0, Final residual = 0, No Iterations 0
diagonal:  Solving for rhoUy, Initial residual = 0, Final residual = 0, No Iterations 0
diagonal:  Solving for rhoE, Initial residual = 0, Final residual = 0, No Iterations 0
bounding h, min: -1.78372e+11 max: 810558 average: -2.35289e+08
new min: 1.007
bounding rho, min: -399491 max: 156795 average: 14.6295
new min: 1.16642
new max: 10000
bounding p, min: 2169.31 max: 4.34327e+08 average: 723838
new max: 8.05401e+06
diagonal:  Solving for rho, Initial residual = 0, Final residual = 0, No Iterations 0
diagonal:  Solving for rhoUx, Initial residual = 0, Final residual = 0, No Iterations 0
diagonal:  Solving for rhoUy, Initial residual = 0, Final residual = 0, No Iterations 0
diagonal:  Solving for rhoE, Initial residual = 0, Final residual = 0, No Iterations 0
bounding h, min: -1.20899e+12 max: 739488 average: -1.48583e+09
new min: 1.007
bounding rho, min: -3.63659e+07 max: 4.98197e+07 average: 14.6295
new min: 1.28937
new max: 10000
bounding p, min: 2876.99 max: 3.99513e+08 average: 1.09103e+06
new max: 1e+07
    ExecutionTime = 0.05 s

Courant Number mean: 12.5878 max: 5660.8 velocity magnitude: 566080

 Time = 4e-05
diagonal:  Solving for rho, Initial residual = 0, Final residual = 0, No Iterations 0
diagonal:  Solving for rhoUx, Initial residual = 0, Final residual = 0, No Iterations 0
diagonal:  Solving for rhoUy, Initial residual = 0, Final residual = 0, No Iterations 0
diagonal:  Solving for rhoE, Initial residual = 0, Final residual = 0, No Iterations 0
bounding h, min: -6.70646e+13 max: 4.87611e+11 average: -7.42317e+10
new min: 1.007
new max: 1.007e+07
bounding rho, min: -9.34426e+06 max: 6.29687e+06 average: 102.674
new min: 0.001
new max: 10000
bounding p, min: 233.078 max: 2.87699e+10 average: 1.4804e+08
new max: 1e+07
diagonal:  Solving for rho, Initial residual = 0, Final residual = 0, No Iterations 0
diagonal:  Solving for rhoUx, Initial residual = 0, Final residual = 0, No Iterations 0
diagonal:  Solving for rhoUy, Initial residual = 0, Final residual = 0, No Iterations 0
diagonal:  Solving for rhoE, Initial residual = 0, Final residual = 0, No Iterations 0
bounding h, min: -3.33346e+17 max: 6.66099e+12 average: -6.18634e+14
new min: 1.007
new max: 1.007e+07

    From function specieThermo<thermo>::T(scalar f, scalar T0, scalar (specieThermo<thermo>::*F)(const scalar) const, scalar (specieThermo<thermo>::*dFdT)(const scalar) const) const
    in file /opt/foam/foam-extend-4.0/src/thermophysicalModels/specie/lnInclude/specieThermoI.H at line 72
    Maximum number of iterations exceeded.  T0 = 10000 F = 8.03586e+06 dFdT = 1007

    From function specieThermo<thermo>::T(scalar f, scalar T0, scalar (specieThermo<thermo>::*F)(const scalar) const, scalar (specieThermo<thermo>::*dFdT)(const scalar) const) const
    in file /opt/foam/foam-extend-4.0/src/thermophysicalModels/specie/lnInclude/specieThermoI.H at line 72
    Maximum number of iterations exceeded.  T0 = 10000 F = 8.03586e+06 dFdT = 1007

    From function specieThermo<thermo>::T(scalar f, scalar T0, scalar (specieThermo<thermo>::*F)(const scalar) const, scalar (specieThermo<thermo>::*dFdT)(const scalar) const) const
    in file /opt/foam/foam-extend-4.0/src/thermophysicalModels/specie/lnInclude/specieThermoI.H at line 72
    Maximum number of iterations exceeded.  T0 = 10000 F = 8.03586e+06 dFdT = 1007

    From function specieThermo<thermo>::T(scalar f, scalar T0, scalar (specieThermo<thermo>::*F)(const scalar) const, scalar (specieThermo<thermo>::*dFdT)(const scalar) const) const
    in file /opt/foam/foam-extend-4.0/src/thermophysicalModels/specie/lnInclude/specieThermoI.H at line 72
    Maximum number of iterations exceeded.  T0 = 10000 F = 8.03586e+06 dFdT = 1007

    From function specieThermo<thermo>::T(scalar f, scalar T0, scalar (specieThermo<thermo>::*F)(const scalar) const, scalar (specieThermo<thermo>::*dFdT)(const scalar) const) const
    in file /opt/foam/foam-extend-4.0/src/thermophysicalModels/specie/lnInclude/specieThermoI.H at line 72
    Maximum number of iterations exceeded.  T0 = 10000 F = 8.03586e+06 dFdT = 1007

    From function specieThermo<thermo>::T(scalar f, scalar T0, scalar (specieThermo<thermo>::*F)(const scalar) const, scalar (specieThermo<thermo>::*dFdT)(const scalar) const) const
    in file /opt/foam/foam-extend-4.0/src/thermophysicalModels/specie/lnInclude/specieThermoI.H at line 72
    Maximum number of iterations exceeded.  T0 = 10000 F = 8.03586e+06 dFdT = 1007

    From function specieThermo<thermo>::T(scalar f, scalar T0, scalar (specieThermo<thermo>::*F)(const scalar) const, scalar (specieThermo<thermo>::*dFdT)(const scalar) const) const
    in file /opt/foam/foam-extend-4.0/src/thermophysicalModels/specie/lnInclude/specieThermoI.H at line 72
    Maximum number of iterations exceeded.  T0 = 10000 F = 8.03586e+06 dFdT = 1007

    From function specieThermo<thermo>::T(scalar f, scalar T0, scalar (specieThermo<thermo>::*F)(const scalar) const, scalar (specieThermo<thermo>::*dFdT)(const scalar) const) const
    in file /opt/foam/foam-extend-4.0/src/thermophysicalModels/specie/lnInclude/specieThermoI.H at line 72
    Maximum number of iterations exceeded.  T0 = 10000 F = 8.03586e+06 dFdT = 1007

    From function specieThermo<thermo>::T(scalar f, scalar T0, scalar (specieThermo<thermo>::*F)(const scalar) const, scalar (specieThermo<thermo>::*dFdT)(const scalar) const) const
    in file /opt/foam/foam-extend-4.0/src/thermophysicalModels/specie/lnInclude/specieThermoI.H at line 72
    Maximum number of iterations exceeded.  T0 = 10000 F = 8.03586e+06 dFdT = 1007

    From function specieThermo<thermo>::T(scalar f, scalar T0, scalar (specieThermo<thermo>::*F)(const scalar) const, scalar (specieThermo<thermo>::*dFdT)(const scalar) const) const
    in file /opt/foam/foam-extend-4.0/src/thermophysicalModels/specie/lnInclude/specieThermoI.H at line 72
    Maximum number of iterations exceeded.  T0 = 10000 F = 8.03586e+06 dFdT = 1007

    From function specieThermo<thermo>::T(scalar f, scalar T0, scalar (specieThermo<thermo>::*F)(const scalar) const, scalar (specieThermo<thermo>::*dFdT)(const scalar) const) const
    in file /opt/foam/foam-extend-4.0/src/thermophysicalModels/specie/lnInclude/specieThermoI.H at line 72
    Maximum number of iterations exceeded.  T0 = 10000 F = 8.03586e+06 dFdT = 1007

    From function specieThermo<thermo>::T(scalar f, scalar T0, scalar (specieThermo<thermo>::*F)(const scalar) const, scalar (specieThermo<thermo>::*dFdT)(const scalar) const) const
    in file /opt/foam/foam-extend-4.0/src/thermophysicalModels/specie/lnInclude/specieThermoI.H at line 72
    Maximum number of iterations exceeded.  T0 = 10000 F = 8.03586e+06 dFdT = 1007

    From function specieThermo<thermo>::T(scalar f, scalar T0, scalar (specieThermo<thermo>::*F)(const scalar) const, scalar (specieThermo<thermo>::*dFdT)(const scalar) const) const
    in file /opt/foam/foam-extend-4.0/src/thermophysicalModels/specie/lnInclude/specieThermoI.H at line 72
    Maximum number of iterations exceeded.  T0 = 10000 F = 8.03586e+06 dFdT = 1007

    From function specieThermo<thermo>::T(scalar f, scalar T0, scalar (specieThermo<thermo>::*F)(const scalar) const, scalar (specieThermo<thermo>::*dFdT)(const scalar) const) const
    in file /opt/foam/foam-extend-4.0/src/thermophysicalModels/specie/lnInclude/specieThermoI.H at line 72
    Maximum number of iterations exceeded.  T0 = 10000 F = 8.03586e+06 dFdT = 1007

    From function specieThermo<thermo>::T(scalar f, scalar T0, scalar (specieThermo<thermo>::*F)(const scalar) const, scalar (specieThermo<thermo>::*dFdT)(const scalar) const) const
    in file /opt/foam/foam-extend-4.0/src/thermophysicalModels/specie/lnInclude/specieThermoI.H at line 72
    Maximum number of iterations exceeded.  T0 = 10000 F = 8.03586e+06 dFdT = 1007
bounding rho, min: -3.41165e+08 max: 2.58659e+08 average: 102.674
new min: 1.28937
new max: 10000
bounding p, min: 23.4977 max: 2.87699e+10 average: 2.28731e+08
new max: 1e+07
diagonal:  Solving for rho, Initial residual = 0, Final residual = 0, No Iterations 0
diagonal:  Solving for rhoUx, Initial residual = 0, Final residual = 0, No Iterations 0
diagonal:  Solving for rhoUy, Initial residual = 0, Final residual = 0, No Iterations 0
diagonal:  Solving for rhoE, Initial residual = 0, Final residual = 0, No Iterations 0
bounding h, min: -7.64872e+19 max: 5.28806e+14 average: -7.71418e+16
new min: 1.007
new max: 1.007e+07

    From function specieThermo<thermo>::T(scalar f, scalar T0, scalar (specieThermo<thermo>::*F)(const scalar) const, scalar (specieThermo<thermo>::*dFdT)(const scalar) const) const
    in file /opt/foam/foam-extend-4.0/src/thermophysicalModels/specie/lnInclude/specieThermoI.H at line 72
    Maximum number of iterations exceeded.  T0 = 7524.75 F = 5.54329e+06 dFdT = 1007

    From function specieThermo<thermo>::T(scalar f, scalar T0, scalar (specieThermo<thermo>::*F)(const scalar) const, scalar (specieThermo<thermo>::*dFdT)(const scalar) const) const
    in file /opt/foam/foam-extend-4.0/src/thermophysicalModels/specie/lnInclude/specieThermoI.H at line 72
    Maximum number of iterations exceeded.  T0 = 10000 F = 8.03586e+06 dFdT = 1007

    From function specieThermo<thermo>::T(scalar f, scalar T0, scalar (specieThermo<thermo>::*F)(const scalar) const, scalar (specieThermo<thermo>::*dFdT)(const scalar) const) const
    in file /opt/foam/foam-extend-4.0/src/thermophysicalModels/specie/lnInclude/specieThermoI.H at line 72
    Maximum number of iterations exceeded.  T0 = 7524.75 F = 5.54329e+06 dFdT = 1007

    From function specieThermo<thermo>::T(scalar f, scalar T0, scalar (specieThermo<thermo>::*F)(const scalar) const, scalar (specieThermo<thermo>::*dFdT)(const scalar) const) const
    in file /opt/foam/foam-extend-4.0/src/thermophysicalModels/specie/lnInclude/specieThermoI.H at line 72
    Maximum number of iterations exceeded.  T0 = 10000 F = 8.03586e+06 dFdT = 1007

    From function specieThermo<thermo>::T(scalar f, scalar T0, scalar (specieThermo<thermo>::*F)(const scalar) const, scalar (specieThermo<thermo>::*dFdT)(const scalar) const) const
    in file /opt/foam/foam-extend-4.0/src/thermophysicalModels/specie/lnInclude/specieThermoI.H at line 72
    Maximum number of iterations exceeded.  T0 = 7524.75 F = 5.54329e+06 dFdT = 1007

    From function specieThermo<thermo>::T(scalar f, scalar T0, scalar (specieThermo<thermo>::*F)(const scalar) const, scalar (specieThermo<thermo>::*dFdT)(const scalar) const) const
    in file /opt/foam/foam-extend-4.0/src/thermophysicalModels/specie/lnInclude/specieThermoI.H at line 72
    Maximum number of iterations exceeded.  T0 = 7524.75 F = 5.54329e+06 dFdT = 1007

    From function specieThermo<thermo>::T(scalar f, scalar T0, scalar (specieThermo<thermo>::*F)(const scalar) const, scalar (specieThermo<thermo>::*dFdT)(const scalar) const) const
    in file /opt/foam/foam-extend-4.0/src/thermophysicalModels/specie/lnInclude/specieThermoI.H at line 72
    Maximum number of iterations exceeded.  T0 = 10000 F = 8.03586e+06 dFdT = 1007

    From function specieThermo<thermo>::T(scalar f, scalar T0, scalar (specieThermo<thermo>::*F)(const scalar) const, scalar (specieThermo<thermo>::*dFdT)(const scalar) const) const
    in file /opt/foam/foam-extend-4.0/src/thermophysicalModels/specie/lnInclude/specieThermoI.H at line 72
    Maximum number of iterations exceeded.  T0 = 7543.97 F = 5.56264e+06 dFdT = 1007

    From function specieThermo<thermo>::T(scalar f, scalar T0, scalar (specieThermo<thermo>::*F)(const scalar) const, scalar (specieThermo<thermo>::*dFdT)(const scalar) const) const
    in file /opt/foam/foam-extend-4.0/src/thermophysicalModels/specie/lnInclude/specieThermoI.H at line 72
    Maximum number of iterations exceeded.  T0 = 7524.75 F = 5.54329e+06 dFdT = 1007

    From function specieThermo<thermo>::T(scalar f, scalar T0, scalar (specieThermo<thermo>::*F)(const scalar) const, scalar (specieThermo<thermo>::*dFdT)(const scalar) const) const
    in file /opt/foam/foam-extend-4.0/src/thermophysicalModels/specie/lnInclude/specieThermoI.H at line 72
    Maximum number of iterations exceeded.  T0 = 10000 F = 8.03586e+06 dFdT = 1007

    From function specieThermo<thermo>::T(scalar f, scalar T0, scalar (specieThermo<thermo>::*F)(const scalar) const, scalar (specieThermo<thermo>::*dFdT)(const scalar) const) const
    in file /opt/foam/foam-extend-4.0/src/thermophysicalModels/specie/lnInclude/specieThermoI.H at line 72
    Maximum number of iterations exceeded.  T0 = 7524.75 F = 5.54329e+06 dFdT = 1007

    From function specieThermo<thermo>::T(scalar f, scalar T0, scalar (specieThermo<thermo>::*F)(const scalar) const, scalar (specieThermo<thermo>::*dFdT)(const scalar) const) const
    in file /opt/foam/foam-extend-4.0/src/thermophysicalModels/specie/lnInclude/specieThermoI.H at line 72
    Maximum number of iterations exceeded.  T0 = 10000 F = 8.03586e+06 dFdT = 1007

    From function specieThermo<thermo>::T(scalar f, scalar T0, scalar (specieThermo<thermo>::*F)(const scalar) const, scalar (specieThermo<thermo>::*dFdT)(const scalar) const) const
    in file /opt/foam/foam-extend-4.0/src/thermophysicalModels/specie/lnInclude/specieThermoI.H at line 72
    Maximum number of iterations exceeded.  T0 = 7524.75 F = 5.54329e+06 dFdT = 1007

    From function specieThermo<thermo>::T(scalar f, scalar T0, scalar (specieThermo<thermo>::*F)(const scalar) const, scalar (specieThermo<thermo>::*dFdT)(const scalar) const) const
    in file /opt/foam/foam-extend-4.0/src/thermophysicalModels/specie/lnInclude/specieThermoI.H at line 72
    Maximum number of iterations exceeded.  T0 = 7524.75 F = 5.54329e+06 dFdT = 1007

    From function specieThermo<thermo>::T(scalar f, scalar T0, scalar (specieThermo<thermo>::*F)(const scalar) const, scalar (specieThermo<thermo>::*dFdT)(const scalar) const) const
    in file /opt/foam/foam-extend-4.0/src/thermophysicalModels/specie/lnInclude/specieThermoI.H at line 72
    Maximum number of iterations exceeded.  T0 = 10000 F = 8.03586e+06 dFdT = 1007

    From function specieThermo<thermo>::T(scalar f, scalar T0, scalar (specieThermo<thermo>::*F)(const scalar) const, scalar (specieThermo<thermo>::*dFdT)(const scalar) const) const
    in file /opt/foam/foam-extend-4.0/src/thermophysicalModels/specie/lnInclude/specieThermoI.H at line 72
    Maximum number of iterations exceeded.  T0 = 7543.97 F = 5.56264e+06 dFdT = 1007

    From function specieThermo<thermo>::T(scalar f, scalar T0, scalar (specieThermo<thermo>::*F)(const scalar) const, scalar (specieThermo<thermo>::*dFdT)(const scalar) const) const
    in file /opt/foam/foam-extend-4.0/src/thermophysicalModels/specie/lnInclude/specieThermoI.H at line 72
    Maximum number of iterations exceeded.  T0 = 7524.75 F = 5.54329e+06 dFdT = 1007

    From function specieThermo<thermo>::T(scalar f, scalar T0, scalar (specieThermo<thermo>::*F)(const scalar) const, scalar (specieThermo<thermo>::*dFdT)(const scalar) const) const
    in file /opt/foam/foam-extend-4.0/src/thermophysicalModels/specie/lnInclude/specieThermoI.H at line 72
    Maximum number of iterations exceeded.  T0 = 10000 F = 8.03586e+06 dFdT = 1007

    From function specieThermo<thermo>::T(scalar f, scalar T0, scalar (specieThermo<thermo>::*F)(const scalar) const, scalar (specieThermo<thermo>::*dFdT)(const scalar) const) const
    in file /opt/foam/foam-extend-4.0/src/thermophysicalModels/specie/lnInclude/specieThermoI.H at line 72
    Maximum number of iterations exceeded.  T0 = 7524.75 F = 5.54329e+06 dFdT = 1007

    From function specieThermo<thermo>::T(scalar f, scalar T0, scalar (specieThermo<thermo>::*F)(const scalar) const, scalar (specieThermo<thermo>::*dFdT)(const scalar) const) const
    in file /opt/foam/foam-extend-4.0/src/thermophysicalModels/specie/lnInclude/specieThermoI.H at line 72
    Maximum number of iterations exceeded.  T0 = 10000 F = 8.03586e+06 dFdT = 1007

    From function specieThermo<thermo>::T(scalar f, scalar T0, scalar (specieThermo<thermo>::*F)(const scalar) const, scalar (specieThermo<thermo>::*dFdT)(const scalar) const) const
    in file /opt/foam/foam-extend-4.0/src/thermophysicalModels/specie/lnInclude/specieThermoI.H at line 72
    Maximum number of iterations exceeded.  T0 = 7524.75 F = 5.54329e+06 dFdT = 1007

    From function specieThermo<thermo>::T(scalar f, scalar T0, scalar (specieThermo<thermo>::*F)(const scalar) const, scalar (specieThermo<thermo>::*dFdT)(const scalar) const) const
    in file /opt/foam/foam-extend-4.0/src/thermophysicalModels/specie/lnInclude/specieThermoI.H at line 72
    Maximum number of iterations exceeded.  T0 = 7524.75 F = 5.54329e+06 dFdT = 1007

    From function specieThermo<thermo>::T(scalar f, scalar T0, scalar (specieThermo<thermo>::*F)(const scalar) const, scalar (specieThermo<thermo>::*dFdT)(const scalar) const) const
    in file /opt/foam/foam-extend-4.0/src/thermophysicalModels/specie/lnInclude/specieThermoI.H at line 72
    Maximum number of iterations exceeded.  T0 = 10000 F = 8.03586e+06 dFdT = 1007

    From function specieThermo<thermo>::T(scalar f, scalar T0, scalar (specieThermo<thermo>::*F)(const scalar) const, scalar (specieThermo<thermo>::*dFdT)(const scalar) const) const
    in file /opt/foam/foam-extend-4.0/src/thermophysicalModels/specie/lnInclude/specieThermoI.H at line 72
    Maximum number of iterations exceeded.  T0 = 7543.97 F = 5.56264e+06 dFdT = 1007
bounding rho, min: -2.0915e+10 max: 2.09901e+10 average: 102.674
new min: 0.001
new max: 10000
bounding p, min: 0.000287699 max: 2.87699e+10 average: 1.34353e+08
new min: 275.443
new max: 1e+07
diagonal:  Solving for rho, Initial residual = 0, Final residual = 0, No Iterations 0
diagonal:  Solving for rhoUx, Initial residual = 0, Final residual = 0, No Iterations 0
diagonal:  Solving for rhoUy, Initial residual = 0, Final residual = 0, No Iterations 0
diagonal:  Solving for rhoE, Initial residual = 0, Final residual = 0, No Iterations 0
bounding h, min: -9.89133e+19 max: 4.43202e+16 average: -1.19594e+17
new min: 1.007
new max: 1.007e+07

    From function specieThermo<thermo>::T(scalar f, scalar T0, scalar (specieThermo<thermo>::*F)(const scalar) const, scalar (specieThermo<thermo>::*dFdT)(const scalar) const) const
    in file /opt/foam/foam-extend-4.0/src/thermophysicalModels/specie/lnInclude/specieThermoI.H at line 72
    Maximum number of iterations exceeded.  T0 = 7524.75 F = 5.54329e+06 dFdT = 1007

    From function specieThermo<thermo>::T(scalar f, scalar T0, scalar (specieThermo<thermo>::*F)(const scalar) const, scalar (specieThermo<thermo>::*dFdT)(const scalar) const) const
    in file /opt/foam/foam-extend-4.0/src/thermophysicalModels/specie/lnInclude/specieThermoI.H at line 72
    Maximum number of iterations exceeded.  T0 = 10000 F = 8.03586e+06 dFdT = 1007

    From function specieThermo<thermo>::T(scalar f, scalar T0, scalar (specieThermo<thermo>::*F)(const scalar) const, scalar (specieThermo<thermo>::*dFdT)(const scalar) const) const
    in file /opt/foam/foam-extend-4.0/src/thermophysicalModels/specie/lnInclude/specieThermoI.H at line 72
    Maximum number of iterations exceeded.  T0 = 10000 F = 8.03586e+06 dFdT = 1007

    From function specieThermo<thermo>::T(scalar f, scalar T0, scalar (specieThermo<thermo>::*F)(const scalar) const, scalar (specieThermo<thermo>::*dFdT)(const scalar) const) const
    in file /opt/foam/foam-extend-4.0/src/thermophysicalModels/specie/lnInclude/specieThermoI.H at line 72
    Maximum number of iterations exceeded.  T0 = 7524.75 F = 5.54329e+06 dFdT = 1007

    From function specieThermo<thermo>::T(scalar f, scalar T0, scalar (specieThermo<thermo>::*F)(const scalar) const, scalar (specieThermo<thermo>::*dFdT)(const scalar) const) const
    in file /opt/foam/foam-extend-4.0/src/thermophysicalModels/specie/lnInclude/specieThermoI.H at line 72
    Maximum number of iterations exceeded.  T0 = 10000 F = 8.03586e+06 dFdT = 1007

    From function specieThermo<thermo>::T(scalar f, scalar T0, scalar (specieThermo<thermo>::*F)(const scalar) const, scalar (specieThermo<thermo>::*dFdT)(const scalar) const) const
    in file /opt/foam/foam-extend-4.0/src/thermophysicalModels/specie/lnInclude/specieThermoI.H at line 72
    Maximum number of iterations exceeded.  T0 = 10000 F = 8.03586e+06 dFdT = 1007

    From function specieThermo<thermo>::T(scalar f, scalar T0, scalar (specieThermo<thermo>::*F)(const scalar) const, scalar (specieThermo<thermo>::*dFdT)(const scalar) const) const
    in file /opt/foam/foam-extend-4.0/src/thermophysicalModels/specie/lnInclude/specieThermoI.H at line 72
    Maximum number of iterations exceeded.  T0 = 7524.75 F = 5.54329e+06 dFdT = 1007

    From function specieThermo<thermo>::T(scalar f, scalar T0, scalar (specieThermo<thermo>::*F)(const scalar) const, scalar (specieThermo<thermo>::*dFdT)(const scalar) const) const
    in file /opt/foam/foam-extend-4.0/src/thermophysicalModels/specie/lnInclude/specieThermoI.H at line 72
    Maximum number of iterations exceeded.  T0 = 10000 F = 8.03586e+06 dFdT = 1007

    From function specieThermo<thermo>::T(scalar f, scalar T0, scalar (specieThermo<thermo>::*F)(const scalar) const, scalar (specieThermo<thermo>::*dFdT)(const scalar) const) const
    in file /opt/foam/foam-extend-4.0/src/thermophysicalModels/specie/lnInclude/specieThermoI.H at line 72
    Maximum number of iterations exceeded.  T0 = 10000 F = 8.03586e+06 dFdT = 1007
bounding rho, min: -9.0392e+10 max: 6.34448e+10 average: 102.674
new min: 0.001
new max: 10000
bounding p, min: 0.000287699 max: 2.87699e+10 average: 2.88454e+08
new min: 535.859
new max: 1e+07
    ExecutionTime = 0.07 s

Courant Number mean: 2.89151e+06 max: 2.86821e+09 velocity magnitude: 2.86821e+11

 Time = 5e-05
diagonal:  Solving for rho, Initial residual = 0, Final residual = 0, No Iterations 0
diagonal:  Solving for rhoUx, Initial residual = 0, Final residual = 0, No Iterations 0
diagonal:  Solving for rhoUy, Initial residual = 0, Final residual = 0, No Iterations 0
diagonal:  Solving for rhoE, Initial residual = 0, Final residual = 0, No Iterations 0
bounding h, min: -5.53912e+21 max: 8.33364e+12 average: -6.54043e+18
new min: 1.007
new max: 1.007e+07

    From function specieThermo<thermo>::T(scalar f, scalar T0, scalar (specieThermo<thermo>::*F)(const scalar) const, scalar (specieThermo<thermo>::*dFdT)(const scalar) const) const
    in file /opt/foam/foam-extend-4.0/src/thermophysicalModels/specie/lnInclude/specieThermoI.H at line 72
    Maximum number of iterations exceeded.  T0 = 10000 F = 8.03586e+06 dFdT = 1007

    From function specieThermo<thermo>::T(scalar f, scalar T0, scalar (specieThermo<thermo>::*F)(const scalar) const, scalar (specieThermo<thermo>::*dFdT)(const scalar) const) const
    in file /opt/foam/foam-extend-4.0/src/thermophysicalModels/specie/lnInclude/specieThermoI.H at line 72
    Maximum number of iterations exceeded.  T0 = 7524.75 F = 5.54329e+06 dFdT = 1007

    From function specieThermo<thermo>::T(scalar f, scalar T0, scalar (specieThermo<thermo>::*F)(const scalar) const, scalar (specieThermo<thermo>::*dFdT)(const scalar) const) const
    in file /opt/foam/foam-extend-4.0/src/thermophysicalModels/specie/lnInclude/specieThermoI.H at line 72
    Maximum number of iterations exceeded.  T0 = 7524.75 F = 5.54329e+06 dFdT = 1007

    From function specieThermo<thermo>::T(scalar f, scalar T0, scalar (specieThermo<thermo>::*F)(const scalar) const, scalar (specieThermo<thermo>::*dFdT)(const scalar) const) const
    in file /opt/foam/foam-extend-4.0/src/thermophysicalModels/specie/lnInclude/specieThermoI.H at line 72
    Maximum number of iterations exceeded.  T0 = 10000 F = 8.03586e+06 dFdT = 1007

    From function specieThermo<thermo>::T(scalar f, scalar T0, scalar (specieThermo<thermo>::*F)(const scalar) const, scalar (specieThermo<thermo>::*dFdT)(const scalar) const) const
    in file /opt/foam/foam-extend-4.0/src/thermophysicalModels/specie/lnInclude/specieThermoI.H at line 72
    Maximum number of iterations exceeded.  T0 = 10000 F = 8.03586e+06 dFdT = 1007

    From function specieThermo<thermo>::T(scalar f, scalar T0, scalar (specieThermo<thermo>::*F)(const scalar) const, scalar (specieThermo<thermo>::*dFdT)(const scalar) const) const
    in file /opt/foam/foam-extend-4.0/src/thermophysicalModels/specie/lnInclude/specieThermoI.H at line 72
    Maximum number of iterations exceeded.  T0 = 10000 F = 8.03586e+06 dFdT = 1007

    From function specieThermo<thermo>::T(scalar f, scalar T0, scalar (specieThermo<thermo>::*F)(const scalar) const, scalar (specieThermo<thermo>::*dFdT)(const scalar) const) const
    in file /opt/foam/foam-extend-4.0/src/thermophysicalModels/specie/lnInclude/specieThermoI.H at line 72
    Maximum number of iterations exceeded.  T0 = 10000 F = 8.03586e+06 dFdT = 1007

    From function specieThermo<thermo>::T(scalar f, scalar T0, scalar (specieThermo<thermo>::*F)(const scalar) const, scalar (specieThermo<thermo>::*dFdT)(const scalar) const) const
    in file /opt/foam/foam-extend-4.0/src/thermophysicalModels/specie/lnInclude/specieThermoI.H at line 72
    Maximum number of iterations exceeded.  T0 = 10000 F = 8.03586e+06 dFdT = 1007

    From function specieThermo<thermo>::T(scalar f, scalar T0, scalar (specieThermo<thermo>::*F)(const scalar) const, scalar (specieThermo<thermo>::*dFdT)(const scalar) const) const
    in file /opt/foam/foam-extend-4.0/src/thermophysicalModels/specie/lnInclude/specieThermoI.H at line 72
    Maximum number of iterations exceeded.  T0 = 7525.18 F = 5.54371e+06 dFdT = 1007

    From function specieThermo<thermo>::T(scalar f, scalar T0, scalar (specieThermo<thermo>::*F)(const scalar) const, scalar (specieThermo<thermo>::*dFdT)(const scalar) const) const
    in file /opt/foam/foam-extend-4.0/src/thermophysicalModels/specie/lnInclude/specieThermoI.H at line 72
    Maximum number of iterations exceeded.  T0 = 10000 F = 8.03586e+06 dFdT = 1007

    From function specieThermo<thermo>::T(scalar f, scalar T0, scalar (specieThermo<thermo>::*F)(const scalar) const, scalar (specieThermo<thermo>::*dFdT)(const scalar) const) const
    in file /opt/foam/foam-extend-4.0/src/thermophysicalModels/specie/lnInclude/specieThermoI.H at line 72
    Maximum number of iterations exceeded.  T0 = 7524.75 F = 5.54329e+06 dFdT = 1007

    From function specieThermo<thermo>::T(scalar f, scalar T0, scalar (specieThermo<thermo>::*F)(const scalar) const, scalar (specieThermo<thermo>::*dFdT)(const scalar) const) const
    in file /opt/foam/foam-extend-4.0/src/thermophysicalModels/specie/lnInclude/specieThermoI.H at line 72
    Maximum number of iterations exceeded.  T0 = 7524.75 F = 5.54329e+06 dFdT = 1007

    From function specieThermo<thermo>::T(scalar f, scalar T0, scalar (specieThermo<thermo>::*F)(const scalar) const, scalar (specieThermo<thermo>::*dFdT)(const scalar) const) const
    in file /opt/foam/foam-extend-4.0/src/thermophysicalModels/specie/lnInclude/specieThermoI.H at line 72
    Maximum number of iterations exceeded.  T0 = 10000 F = 8.03586e+06 dFdT = 1007

    From function specieThermo<thermo>::T(scalar f, scalar T0, scalar (specieThermo<thermo>::*F)(const scalar) const, scalar (specieThermo<thermo>::*dFdT)(const scalar) const) const
    in file /opt/foam/foam-extend-4.0/src/thermophysicalModels/specie/lnInclude/specieThermoI.H at line 72
    Maximum number of iterations exceeded.  T0 = 10000 F = 8.03586e+06 dFdT = 1007

    From function specieThermo<thermo>::T(scalar f, scalar T0, scalar (specieThermo<thermo>::*F)(const scalar) const, scalar (specieThermo<thermo>::*dFdT)(const scalar) const) const
    in file /opt/foam/foam-extend-4.0/src/thermophysicalModels/specie/lnInclude/specieThermoI.H at line 72
    Maximum number of iterations exceeded.  T0 = 10000 F = 8.03586e+06 dFdT = 1007

    From function specieThermo<thermo>::T(scalar f, scalar T0, scalar (specieThermo<thermo>::*F)(const scalar) const, scalar (specieThermo<thermo>::*dFdT)(const scalar) const) const
    in file /opt/foam/foam-extend-4.0/src/thermophysicalModels/specie/lnInclude/specieThermoI.H at line 72
    Maximum number of iterations exceeded.  T0 = 10000 F = 8.03586e+06 dFdT = 1007

    From function specieThermo<thermo>::T(scalar f, scalar T0, scalar (specieThermo<thermo>::*F)(const scalar) const, scalar (specieThermo<thermo>::*dFdT)(const scalar) const) const
    in file /opt/foam/foam-extend-4.0/src/thermophysicalModels/specie/lnInclude/specieThermoI.H at line 72
    Maximum number of iterations exceeded.  T0 = 10000 F = 8.03586e+06 dFdT = 1007

    From function specieThermo<thermo>::T(scalar f, scalar T0, scalar (specieThermo<thermo>::*F)(const scalar) const, scalar (specieThermo<thermo>::*dFdT)(const scalar) const) const
    in file /opt/foam/foam-extend-4.0/src/thermophysicalModels/specie/lnInclude/specieThermoI.H at line 72
    Maximum number of iterations exceeded.  T0 = 7525.18 F = 5.54371e+06 dFdT = 1007

    From function specieThermo<thermo>::T(scalar f, scalar T0, scalar (specieThermo<thermo>::*F)(const scalar) const, scalar (specieThermo<thermo>::*dFdT)(const scalar) const) const
    in file /opt/foam/foam-extend-4.0/src/thermophysicalModels/specie/lnInclude/specieThermoI.H at line 72
    Maximum number of iterations exceeded.  T0 = 10000 F = 8.03586e+06 dFdT = 1007

    From function specieThermo<thermo>::T(scalar f, scalar T0, scalar (specieThermo<thermo>::*F)(const scalar) const, scalar (specieThermo<thermo>::*dFdT)(const scalar) const) const
    in file /opt/foam/foam-extend-4.0/src/thermophysicalModels/specie/lnInclude/specieThermoI.H at line 72
    Maximum number of iterations exceeded.  T0 = 7524.75 F = 5.54329e+06 dFdT = 1007

    From function specieThermo<thermo>::T(scalar f, scalar T0, scalar (specieThermo<thermo>::*F)(const scalar) const, scalar (specieThermo<thermo>::*dFdT)(const scalar) const) const
    in file /opt/foam/foam-extend-4.0/src/thermophysicalModels/specie/lnInclude/specieThermoI.H at line 72
    Maximum number of iterations exceeded.  T0 = 7524.75 F = 5.54329e+06 dFdT = 1007

    From function specieThermo<thermo>::T(scalar f, scalar T0, scalar (specieThermo<thermo>::*F)(const scalar) const, scalar (specieThermo<thermo>::*dFdT)(const scalar) const) const
    in file /opt/foam/foam-extend-4.0/src/thermophysicalModels/specie/lnInclude/specieThermoI.H at line 72
    Maximum number of iterations exceeded.  T0 = 10000 F = 8.03586e+06 dFdT = 1007

    From function specieThermo<thermo>::T(scalar f, scalar T0, scalar (specieThermo<thermo>::*F)(const scalar) const, scalar (specieThermo<thermo>::*dFdT)(const scalar) const) const
    in file /opt/foam/foam-extend-4.0/src/thermophysicalModels/specie/lnInclude/specieThermoI.H at line 72
    Maximum number of iterations exceeded.  T0 = 10000 F = 8.03586e+06 dFdT = 1007

    From function specieThermo<thermo>::T(scalar f, scalar T0, scalar (specieThermo<thermo>::*F)(const scalar) const, scalar (specieThermo<thermo>::*dFdT)(const scalar) const) const
    in file /opt/foam/foam-extend-4.0/src/thermophysicalModels/specie/lnInclude/specieThermoI.H at line 72
    Maximum number of iterations exceeded.  T0 = 10000 F = 8.03586e+06 dFdT = 1007

    From function specieThermo<thermo>::T(scalar f, scalar T0, scalar (specieThermo<thermo>::*F)(const scalar) const, scalar (specieThermo<thermo>::*dFdT)(const scalar) const) const
    in file /opt/foam/foam-extend-4.0/src/thermophysicalModels/specie/lnInclude/specieThermoI.H at line 72
    Maximum number of iterations exceeded.  T0 = 10000 F = 8.03586e+06 dFdT = 1007

    From function specieThermo<thermo>::T(scalar f, scalar T0, scalar (specieThermo<thermo>::*F)(const scalar) const, scalar (specieThermo<thermo>::*dFdT)(const scalar) const) const
    in file /opt/foam/foam-extend-4.0/src/thermophysicalModels/specie/lnInclude/specieThermoI.H at line 72
    Maximum number of iterations exceeded.  T0 = 10000 F = 8.03586e+06 dFdT = 1007

    From function specieThermo<thermo>::T(scalar f, scalar T0, scalar (specieThermo<thermo>::*F)(const scalar) const, scalar (specieThermo<thermo>::*dFdT)(const scalar) const) const
    in file /opt/foam/foam-extend-4.0/src/thermophysicalModels/specie/lnInclude/specieThermoI.H at line 72
    Maximum number of iterations exceeded.  T0 = 7525.18 F = 5.54371e+06 dFdT = 1007
bounding rho, min: -3.19193e+14 max: 2.64076e+14 average: 213.65
new min: 1.28937
new max: 10000
bounding p, min: 2814.06 max: 2.67776e+10 average: 1.40281e+08
new max: 1e+07
diagonal:  Solving for rho, Initial residual = 0, Final residual = 0, No Iterations 0
diagonal:  Solving for rhoUx, Initial residual = 0, Final residual = 0, No Iterations 0
diagonal:  Solving for rhoUy, Initial residual = 0, Final residual = 0, No Iterations 0
diagonal:  Solving for rhoE, Initial residual = 0, Final residual = 0, No Iterations 0
bounding h, min: -1.39009e+23 max: 5.13473e+12 average: -1.52619e+20
new min: 1.007
new max: 1.007e+07

    From function specieThermo<thermo>::T(scalar f, scalar T0, scalar (specieThermo<thermo>::*F)(const scalar) const, scalar (specieThermo<thermo>::*dFdT)(const scalar) const) const
    in file /opt/foam/foam-extend-4.0/src/thermophysicalModels/specie/lnInclude/specieThermoI.H at line 72
    Maximum number of iterations exceeded.  T0 = 7524.75 F = 5.54329e+06 dFdT = 1007

    From function specieThermo<thermo>::T(scalar f, scalar T0, scalar (specieThermo<thermo>::*F)(const scalar) const, scalar (specieThermo<thermo>::*dFdT)(const scalar) const) const
    in file /opt/foam/foam-extend-4.0/src/thermophysicalModels/specie/lnInclude/specieThermoI.H at line 72
    Maximum number of iterations exceeded.  T0 = 10000 F = 8.03586e+06 dFdT = 1007

    From function specieThermo<thermo>::T(scalar f, scalar T0, scalar (specieThermo<thermo>::*F)(const scalar) const, scalar (specieThermo<thermo>::*dFdT)(const scalar) const) const
    in file /opt/foam/foam-extend-4.0/src/thermophysicalModels/specie/lnInclude/specieThermoI.H at line 72
    Maximum number of iterations exceeded.  T0 = 7524.75 F = 5.54329e+06 dFdT = 1007

    From function specieThermo<thermo>::T(scalar f, scalar T0, scalar (specieThermo<thermo>::*F)(const scalar) const, scalar (specieThermo<thermo>::*dFdT)(const scalar) const) const
    in file /opt/foam/foam-extend-4.0/src/thermophysicalModels/specie/lnInclude/specieThermoI.H at line 72
    Maximum number of iterations exceeded.  T0 = 10000 F = 8.03586e+06 dFdT = 1007

    From function specieThermo<thermo>::T(scalar f, scalar T0, scalar (specieThermo<thermo>::*F)(const scalar) const, scalar (specieThermo<thermo>::*dFdT)(const scalar) const) const
    in file /opt/foam/foam-extend-4.0/src/thermophysicalModels/specie/lnInclude/specieThermoI.H at line 72
    Maximum number of iterations exceeded.  T0 = 7524.75 F = 5.54329e+06 dFdT = 1007

    From function specieThermo<thermo>::T(scalar f, scalar T0, scalar (specieThermo<thermo>::*F)(const scalar) const, scalar (specieThermo<thermo>::*dFdT)(const scalar) const) const
    in file /opt/foam/foam-extend-4.0/src/thermophysicalModels/specie/lnInclude/specieThermoI.H at line 72
    Maximum number of iterations exceeded.  T0 = 10000 F = 8.03586e+06 dFdT = 1007
bounding rho, min: -1.67498e+12 max: 2.35853e+12 average: 213.642
new min: 1.28937
new max: 10000
bounding p, min: 2876.99 max: 2.87699e+10 average: 1.71259e+08
new max: 1e+07
diagonal:  Solving for rho, Initial residual = 0, Final residual = 0, No Iterations 0
diagonal:  Solving for rhoUx, Initial residual = 0, Final residual = 0, No Iterations 0
diagonal:  Solving for rhoUy, Initial residual = 0, Final residual = 0, No Iterations 0
diagonal:  Solving for rhoE, Initial residual = 0, Final residual = 0, No Iterations 0
bounding h, min: -1.91086e+23 max: 6.0774e+16 average: -3.16533e+20
new min: 1.007
new max: 1.007e+07

    From function specieThermo<thermo>::T(scalar f, scalar T0, scalar (specieThermo<thermo>::*F)(const scalar) const, scalar (specieThermo<thermo>::*dFdT)(const scalar) const) const
    in file /opt/foam/foam-extend-4.0/src/thermophysicalModels/specie/lnInclude/specieThermoI.H at line 72
    Maximum number of iterations exceeded.  T0 = 10000 F = 8.03586e+06 dFdT = 1007

    From function specieThermo<thermo>::T(scalar f, scalar T0, scalar (specieThermo<thermo>::*F)(const scalar) const, scalar (specieThermo<thermo>::*dFdT)(const scalar) const) const
    in file /opt/foam/foam-extend-4.0/src/thermophysicalModels/specie/lnInclude/specieThermoI.H at line 72
    Maximum number of iterations exceeded.  T0 = 7524.75 F = 5.54329e+06 dFdT = 1007

    From function specieThermo<thermo>::T(scalar f, scalar T0, scalar (specieThermo<thermo>::*F)(const scalar) const, scalar (specieThermo<thermo>::*dFdT)(const scalar) const) const
    in file /opt/foam/foam-extend-4.0/src/thermophysicalModels/specie/lnInclude/specieThermoI.H at line 72
    Maximum number of iterations exceeded.  T0 = 7524.75 F = 5.54329e+06 dFdT = 1007

    From function specieThermo<thermo>::T(scalar f, scalar T0, scalar (specieThermo<thermo>::*F)(const scalar) const, scalar (specieThermo<thermo>::*dFdT)(const scalar) const) const
    in file /opt/foam/foam-extend-4.0/src/thermophysicalModels/specie/lnInclude/specieThermoI.H at line 72
    Maximum number of iterations exceeded.  T0 = 10000 F = 8.03586e+06 dFdT = 1007

    From function specieThermo<thermo>::T(scalar f, scalar T0, scalar (specieThermo<thermo>::*F)(const scalar) const, scalar (specieThermo<thermo>::*dFdT)(const scalar) const) const
    in file /opt/foam/foam-extend-4.0/src/thermophysicalModels/specie/lnInclude/specieThermoI.H at line 72
    Maximum number of iterations exceeded.  T0 = 10000 F = 8.03586e+06 dFdT = 1007

    From function specieThermo<thermo>::T(scalar f, scalar T0, scalar (specieThermo<thermo>::*F)(const scalar) const, scalar (specieThermo<thermo>::*dFdT)(const scalar) const) const
    in file /opt/foam/foam-extend-4.0/src/thermophysicalModels/specie/lnInclude/specieThermoI.H at line 72
    Maximum number of iterations exceeded.  T0 = 7524.75 F = 5.54329e+06 dFdT = 1007

    From function specieThermo<thermo>::T(scalar f, scalar T0, scalar (specieThermo<thermo>::*F)(const scalar) const, scalar (specieThermo<thermo>::*dFdT)(const scalar) const) const
    in file /opt/foam/foam-extend-4.0/src/thermophysicalModels/specie/lnInclude/specieThermoI.H at line 72
    Maximum number of iterations exceeded.  T0 = 7524.75 F = 5.54329e+06 dFdT = 1007

    From function specieThermo<thermo>::T(scalar f, scalar T0, scalar (specieThermo<thermo>::*F)(const scalar) const, scalar (specieThermo<thermo>::*dFdT)(const scalar) const) const
    in file /opt/foam/foam-extend-4.0/src/thermophysicalModels/specie/lnInclude/specieThermoI.H at line 72
    Maximum number of iterations exceeded.  T0 = 10000 F = 8.03586e+06 dFdT = 1007

    From function specieThermo<thermo>::T(scalar f, scalar T0, scalar (specieThermo<thermo>::*F)(const scalar) const, scalar (specieThermo<thermo>::*dFdT)(const scalar) const) const
    in file /opt/foam/foam-extend-4.0/src/thermophysicalModels/specie/lnInclude/specieThermoI.H at line 72
    Maximum number of iterations exceeded.  T0 = 10000 F = 8.03586e+06 dFdT = 1007

    From function specieThermo<thermo>::T(scalar f, scalar T0, scalar (specieThermo<thermo>::*F)(const scalar) const, scalar (specieThermo<thermo>::*dFdT)(const scalar) const) const
    in file /opt/foam/foam-extend-4.0/src/thermophysicalModels/specie/lnInclude/specieThermoI.H at line 72
    Maximum number of iterations exceeded.  T0 = 7524.75 F = 5.54329e+06 dFdT = 1007

    From function specieThermo<thermo>::T(scalar f, scalar T0, scalar (specieThermo<thermo>::*F)(const scalar) const, scalar (specieThermo<thermo>::*dFdT)(const scalar) const) const
    in file /opt/foam/foam-extend-4.0/src/thermophysicalModels/specie/lnInclude/specieThermoI.H at line 72
    Maximum number of iterations exceeded.  T0 = 7524.75 F = 5.54329e+06 dFdT = 1007

    From function specieThermo<thermo>::T(scalar f, scalar T0, scalar (specieThermo<thermo>::*F)(const scalar) const, scalar (specieThermo<thermo>::*dFdT)(const scalar) const) const
    in file /opt/foam/foam-extend-4.0/src/thermophysicalModels/specie/lnInclude/specieThermoI.H at line 72
    Maximum number of iterations exceeded.  T0 = 10000 F = 8.03586e+06 dFdT = 1007
bounding rho, min: -1.41159e+13 max: 1.99804e+13 average: 213.642
new min: 0.001
new max: 10000
bounding p, min: 0.000287699 max: 2.87699e+10 average: 1.74672e+08
new min: 1071.72
new max: 1e+07
diagonal:  Solving for rho, Initial residual = 0, Final residual = 0, No Iterations 0
diagonal:  Solving for rhoUx, Initial residual = 0, Final residual = 0, No Iterations 0
diagonal:  Solving for rhoUy, Initial residual = 0, Final residual = 0, No Iterations 0
diagonal:  Solving for rhoE, Initial residual = 0, Final residual = 0, No Iterations 0
bounding h, min: -3.2495e+24 max: 8.13508e+16 average: -5.20761e+21
new min: 1.007
new max: 1.007e+07

    From function specieThermo<thermo>::T(scalar f, scalar T0, scalar (specieThermo<thermo>::*F)(const scalar) const, scalar (specieThermo<thermo>::*dFdT)(const scalar) const) const
    in file /opt/foam/foam-extend-4.0/src/thermophysicalModels/specie/lnInclude/specieThermoI.H at line 72
    Maximum number of iterations exceeded.  T0 = 10000 F = 8.03586e+06 dFdT = 1007

    From function specieThermo<thermo>::T(scalar f, scalar T0, scalar (specieThermo<thermo>::*F)(const scalar) const, scalar (specieThermo<thermo>::*dFdT)(const scalar) const) const
    in file /opt/foam/foam-extend-4.0/src/thermophysicalModels/specie/lnInclude/specieThermoI.H at line 72
    Maximum number of iterations exceeded.  T0 = 7524.75 F = 5.54329e+06 dFdT = 1007

    From function specieThermo<thermo>::T(scalar f, scalar T0, scalar (specieThermo<thermo>::*F)(const scalar) const, scalar (specieThermo<thermo>::*dFdT)(const scalar) const) const
    in file /opt/foam/foam-extend-4.0/src/thermophysicalModels/specie/lnInclude/specieThermoI.H at line 72
    Maximum number of iterations exceeded.  T0 = 10000 F = 8.03586e+06 dFdT = 1007

    From function specieThermo<thermo>::T(scalar f, scalar T0, scalar (specieThermo<thermo>::*F)(const scalar) const, scalar (specieThermo<thermo>::*dFdT)(const scalar) const) const
    in file /opt/foam/foam-extend-4.0/src/thermophysicalModels/specie/lnInclude/specieThermoI.H at line 72
    Maximum number of iterations exceeded.  T0 = 7524.75 F = 5.54329e+06 dFdT = 1007

    From function specieThermo<thermo>::T(scalar f, scalar T0, scalar (specieThermo<thermo>::*F)(const scalar) const, scalar (specieThermo<thermo>::*dFdT)(const scalar) const) const
    in file /opt/foam/foam-extend-4.0/src/thermophysicalModels/specie/lnInclude/specieThermoI.H at line 72
    Maximum number of iterations exceeded.  T0 = 10000 F = 8.03586e+06 dFdT = 1007

    From function specieThermo<thermo>::T(scalar f, scalar T0, scalar (specieThermo<thermo>::*F)(const scalar) const, scalar (specieThermo<thermo>::*dFdT)(const scalar) const) const
    in file /opt/foam/foam-extend-4.0/src/thermophysicalModels/specie/lnInclude/specieThermoI.H at line 72
    Maximum number of iterations exceeded.  T0 = 7524.75 F = 5.54329e+06 dFdT = 1007
bounding rho, min: -5.57512e+13 max: 2.23956e+13 average: 213.641
new min: 0.001
new max: 10000
bounding p, min: 1325.07 max: 2.87699e+10 average: 1.60034e+08
new max: 1e+07
    ExecutionTime = 0.08 s

Courant Number mean: 2.12051e+09 max: 2.09453e+12 velocity magnitude: 2.09453e+14

 Time = 6e-05
diagonal:  Solving for rho, Initial residual = 0, Final residual = 0, No Iterations 0
diagonal:  Solving for rhoUx, Initial residual = 0, Final residual = 0, No Iterations 0
diagonal:  Solving for rhoUy, Initial residual = 0, Final residual = 0, No Iterations 0
diagonal:  Solving for rhoE, Initial residual = 0, Final residual = 0, No Iterations 0
bounding h, min: -4.90587e+33 max: 1.43815e+24 average: -4.90721e+30
new min: 1.007
new max: 1.007e+07

    From function specieThermo<thermo>::T(scalar f, scalar T0, scalar (specieThermo<thermo>::*F)(const scalar) const, scalar (specieThermo<thermo>::*dFdT)(const scalar) const) const
    in file /opt/foam/foam-extend-4.0/src/thermophysicalModels/specie/lnInclude/specieThermoI.H at line 72
    Maximum number of iterations exceeded.  T0 = 10000 F = 8.03586e+06 dFdT = 1007

    From function specieThermo<thermo>::T(scalar f, scalar T0, scalar (specieThermo<thermo>::*F)(const scalar) const, scalar (specieThermo<thermo>::*dFdT)(const scalar) const) const
    in file /opt/foam/foam-extend-4.0/src/thermophysicalModels/specie/lnInclude/specieThermoI.H at line 72
    Maximum number of iterations exceeded.  T0 = 7524.75 F = 5.54329e+06 dFdT = 1007

    From function specieThermo<thermo>::T(scalar f, scalar T0, scalar (specieThermo<thermo>::*F)(const scalar) const, scalar (specieThermo<thermo>::*dFdT)(const scalar) const) const
    in file /opt/foam/foam-extend-4.0/src/thermophysicalModels/specie/lnInclude/specieThermoI.H at line 72
    Maximum number of iterations exceeded.  T0 = 7524.75 F = 5.54329e+06 dFdT = 1007

    From function specieThermo<thermo>::T(scalar f, scalar T0, scalar (specieThermo<thermo>::*F)(const scalar) const, scalar (specieThermo<thermo>::*dFdT)(const scalar) const) const
    in file /opt/foam/foam-extend-4.0/src/thermophysicalModels/specie/lnInclude/specieThermoI.H at line 72
    Maximum number of iterations exceeded.  T0 = 10000 F = 8.03586e+06 dFdT = 1007

    From function specieThermo<thermo>::T(scalar f, scalar T0, scalar (specieThermo<thermo>::*F)(const scalar) const, scalar (specieThermo<thermo>::*dFdT)(const scalar) const) const
    in file /opt/foam/foam-extend-4.0/src/thermophysicalModels/specie/lnInclude/specieThermoI.H at line 72
    Maximum number of iterations exceeded.  T0 = 10000 F = 8.03586e+06 dFdT = 1007

    From function specieThermo<thermo>::T(scalar f, scalar T0, scalar (specieThermo<thermo>::*F)(const scalar) const, scalar (specieThermo<thermo>::*dFdT)(const scalar) const) const
    in file /opt/foam/foam-extend-4.0/src/thermophysicalModels/specie/lnInclude/specieThermoI.H at line 72
    Maximum number of iterations exceeded.  T0 = 10000 F = 8.03586e+06 dFdT = 1007

    From function specieThermo<thermo>::T(scalar f, scalar T0, scalar (specieThermo<thermo>::*F)(const scalar) const, scalar (specieThermo<thermo>::*dFdT)(const scalar) const) const
    in file /opt/foam/foam-extend-4.0/src/thermophysicalModels/specie/lnInclude/specieThermoI.H at line 72
    Maximum number of iterations exceeded.  T0 = 10000 F = 8.03586e+06 dFdT = 1007

    From function specieThermo<thermo>::T(scalar f, scalar T0, scalar (specieThermo<thermo>::*F)(const scalar) const, scalar (specieThermo<thermo>::*dFdT)(const scalar) const) const
    in file /opt/foam/foam-extend-4.0/src/thermophysicalModels/specie/lnInclude/specieThermoI.H at line 72
    Maximum number of iterations exceeded.  T0 = 7524.75 F = 5.54329e+06 dFdT = 1007

    From function specieThermo<thermo>::T(scalar f, scalar T0, scalar (specieThermo<thermo>::*F)(const scalar) const, scalar (specieThermo<thermo>::*dFdT)(const scalar) const) const
    in file /opt/foam/foam-extend-4.0/src/thermophysicalModels/specie/lnInclude/specieThermoI.H at line 72
    Maximum number of iterations exceeded.  T0 = 10000 F = 8.03586e+06 dFdT = 1007

    From function specieThermo<thermo>::T(scalar f, scalar T0, scalar (specieThermo<thermo>::*F)(const scalar) const, scalar (specieThermo<thermo>::*dFdT)(const scalar) const) const
    in file /opt/foam/foam-extend-4.0/src/thermophysicalModels/specie/lnInclude/specieThermoI.H at line 72
    Maximum number of iterations exceeded.  T0 = 7524.75 F = 5.54329e+06 dFdT = 1007

    From function specieThermo<thermo>::T(scalar f, scalar T0, scalar (specieThermo<thermo>::*F)(const scalar) const, scalar (specieThermo<thermo>::*dFdT)(const scalar) const) const
    in file /opt/foam/foam-extend-4.0/src/thermophysicalModels/specie/lnInclude/specieThermoI.H at line 72
    Maximum number of iterations exceeded.  T0 = 7524.75 F = 5.54329e+06 dFdT = 1007

    From function specieThermo<thermo>::T(scalar f, scalar T0, scalar (specieThermo<thermo>::*F)(const scalar) const, scalar (specieThermo<thermo>::*dFdT)(const scalar) const) const
    in file /opt/foam/foam-extend-4.0/src/thermophysicalModels/specie/lnInclude/specieThermoI.H at line 72
    Maximum number of iterations exceeded.  T0 = 10000 F = 8.03586e+06 dFdT = 1007

    From function specieThermo<thermo>::T(scalar f, scalar T0, scalar (specieThermo<thermo>::*F)(const scalar) const, scalar (specieThermo<thermo>::*dFdT)(const scalar) const) const
    in file /opt/foam/foam-extend-4.0/src/thermophysicalModels/specie/lnInclude/specieThermoI.H at line 72
    Maximum number of iterations exceeded.  T0 = 10000 F = 8.03586e+06 dFdT = 1007

    From function specieThermo<thermo>::T(scalar f, scalar T0, scalar (specieThermo<thermo>::*F)(const scalar) const, scalar (specieThermo<thermo>::*dFdT)(const scalar) const) const
    in file /opt/foam/foam-extend-4.0/src/thermophysicalModels/specie/lnInclude/specieThermoI.H at line 72
    Maximum number of iterations exceeded.  T0 = 10000 F = 8.03586e+06 dFdT = 1007

    From function specieThermo<thermo>::T(scalar f, scalar T0, scalar (specieThermo<thermo>::*F)(const scalar) const, scalar (specieThermo<thermo>::*dFdT)(const scalar) const) const
    in file /opt/foam/foam-extend-4.0/src/thermophysicalModels/specie/lnInclude/specieThermoI.H at line 72
    Maximum number of iterations exceeded.  T0 = 10000 F = 8.03586e+06 dFdT = 1007

    From function specieThermo<thermo>::T(scalar f, scalar T0, scalar (specieThermo<thermo>::*F)(const scalar) const, scalar (specieThermo<thermo>::*dFdT)(const scalar) const) const
    in file /opt/foam/foam-extend-4.0/src/thermophysicalModels/specie/lnInclude/specieThermoI.H at line 72
    Maximum number of iterations exceeded.  T0 = 7524.75 F = 5.54329e+06 dFdT = 1007

    From function specieThermo<thermo>::T(scalar f, scalar T0, scalar (specieThermo<thermo>::*F)(const scalar) const, scalar (specieThermo<thermo>::*dFdT)(const scalar) const) const
    in file /opt/foam/foam-extend-4.0/src/thermophysicalModels/specie/lnInclude/specieThermoI.H at line 72
    Maximum number of iterations exceeded.  T0 = 10000 F = 8.03586e+06 dFdT = 1007

    From function specieThermo<thermo>::T(scalar f, scalar T0, scalar (specieThermo<thermo>::*F)(const scalar) const, scalar (specieThermo<thermo>::*dFdT)(const scalar) const) const
    in file /opt/foam/foam-extend-4.0/src/thermophysicalModels/specie/lnInclude/specieThermoI.H at line 72
    Maximum number of iterations exceeded.  T0 = 7524.75 F = 5.54329e+06 dFdT = 1007

    From function specieThermo<thermo>::T(scalar f, scalar T0, scalar (specieThermo<thermo>::*F)(const scalar) const, scalar (specieThermo<thermo>::*dFdT)(const scalar) const) const
    in file /opt/foam/foam-extend-4.0/src/thermophysicalModels/specie/lnInclude/specieThermoI.H at line 72
    Maximum number of iterations exceeded.  T0 = 7524.75 F = 5.54329e+06 dFdT = 1007

    From function specieThermo<thermo>::T(scalar f, scalar T0, scalar (specieThermo<thermo>::*F)(const scalar) const, scalar (specieThermo<thermo>::*dFdT)(const scalar) const) const
    in file /opt/foam/foam-extend-4.0/src/thermophysicalModels/specie/lnInclude/specieThermoI.H at line 72
    Maximum number of iterations exceeded.  T0 = 10000 F = 8.03586e+06 dFdT = 1007

    From function specieThermo<thermo>::T(scalar f, scalar T0, scalar (specieThermo<thermo>::*F)(const scalar) const, scalar (specieThermo<thermo>::*dFdT)(const scalar) const) const
    in file /opt/foam/foam-extend-4.0/src/thermophysicalModels/specie/lnInclude/specieThermoI.H at line 72
    Maximum number of iterations exceeded.  T0 = 10000 F = 8.03586e+06 dFdT = 1007

    From function specieThermo<thermo>::T(scalar f, scalar T0, scalar (specieThermo<thermo>::*F)(const scalar) const, scalar (specieThermo<thermo>::*dFdT)(const scalar) const) const
    in file /opt/foam/foam-extend-4.0/src/thermophysicalModels/specie/lnInclude/specieThermoI.H at line 72
    Maximum number of iterations exceeded.  T0 = 10000 F = 8.03586e+06 dFdT = 1007

    From function specieThermo<thermo>::T(scalar f, scalar T0, scalar (specieThermo<thermo>::*F)(const scalar) const, scalar (specieThermo<thermo>::*dFdT)(const scalar) const) const
    in file /opt/foam/foam-extend-4.0/src/thermophysicalModels/specie/lnInclude/specieThermoI.H at line 72
    Maximum number of iterations exceeded.  T0 = 10000 F = 8.03586e+06 dFdT = 1007

    From function specieThermo<thermo>::T(scalar f, scalar T0, scalar (specieThermo<thermo>::*F)(const scalar) const, scalar (specieThermo<thermo>::*dFdT)(const scalar) const) const
    in file /opt/foam/foam-extend-4.0/src/thermophysicalModels/specie/lnInclude/specieThermoI.H at line 72
    Maximum number of iterations exceeded.  T0 = 7524.75 F = 5.54329e+06 dFdT = 1007
bounding rho, min: -1.6439e+13 max: 2.18559e+13 average: 297.997
new min: 0.001
new max: 10000
bounding p, min: 2164.87 max: 2.36722e+10 average: 1.03237e+08
new max: 1e+07
diagonal:  Solving for rho, Initial residual = 0, Final residual = 0, No Iterations 0
diagonal:  Solving for rhoUx, Initial residual = 0, Final residual = 0, No Iterations 0
diagonal:  Solving for rhoUy, Initial residual = 0, Final residual = 0, No Iterations 0
diagonal:  Solving for rhoE, Initial residual = 0, Final residual = 0, No Iterations 0
bounding h, min: -6.67792e+33 max: 1.35104e+25 average: -8.45336e+30
new min: 1.007
new max: 1.007e+07

    From function specieThermo<thermo>::T(scalar f, scalar T0, scalar (specieThermo<thermo>::*F)(const scalar) const, scalar (specieThermo<thermo>::*dFdT)(const scalar) const) const
    in file /opt/foam/foam-extend-4.0/src/thermophysicalModels/specie/lnInclude/specieThermoI.H at line 72
    Maximum number of iterations exceeded.  T0 = 7558.25 F = 5.57702e+06 dFdT = 1007

    From function specieThermo<thermo>::T(scalar f, scalar T0, scalar (specieThermo<thermo>::*F)(const scalar) const, scalar (specieThermo<thermo>::*dFdT)(const scalar) const) const
    in file /opt/foam/foam-extend-4.0/src/thermophysicalModels/specie/lnInclude/specieThermoI.H at line 72
    Maximum number of iterations exceeded.  T0 = 10000 F = 8.03586e+06 dFdT = 1007

    From function specieThermo<thermo>::T(scalar f, scalar T0, scalar (specieThermo<thermo>::*F)(const scalar) const, scalar (specieThermo<thermo>::*dFdT)(const scalar) const) const
    in file /opt/foam/foam-extend-4.0/src/thermophysicalModels/specie/lnInclude/specieThermoI.H at line 72
    Maximum number of iterations exceeded.  T0 = 7524.75 F = 5.54329e+06 dFdT = 1007

    From function specieThermo<thermo>::T(scalar f, scalar T0, scalar (specieThermo<thermo>::*F)(const scalar) const, scalar (specieThermo<thermo>::*dFdT)(const scalar) const) const
    in file /opt/foam/foam-extend-4.0/src/thermophysicalModels/specie/lnInclude/specieThermoI.H at line 72
    Maximum number of iterations exceeded.  T0 = 7524.75 F = 5.54329e+06 dFdT = 1007

    From function specieThermo<thermo>::T(scalar f, scalar T0, scalar (specieThermo<thermo>::*F)(const scalar) const, scalar (specieThermo<thermo>::*dFdT)(const scalar) const) const
    in file /opt/foam/foam-extend-4.0/src/thermophysicalModels/specie/lnInclude/specieThermoI.H at line 72
    Maximum number of iterations exceeded.  T0 = 10000 F = 8.03586e+06 dFdT = 1007

    From function specieThermo<thermo>::T(scalar f, scalar T0, scalar (specieThermo<thermo>::*F)(const scalar) const, scalar (specieThermo<thermo>::*dFdT)(const scalar) const) const
    in file /opt/foam/foam-extend-4.0/src/thermophysicalModels/specie/lnInclude/specieThermoI.H at line 72
    Maximum number of iterations exceeded.  T0 = 7558.25 F = 5.57702e+06 dFdT = 1007

    From function specieThermo<thermo>::T(scalar f, scalar T0, scalar (specieThermo<thermo>::*F)(const scalar) const, scalar (specieThermo<thermo>::*dFdT)(const scalar) const) const
    in file /opt/foam/foam-extend-4.0/src/thermophysicalModels/specie/lnInclude/specieThermoI.H at line 72
    Maximum number of iterations exceeded.  T0 = 10000 F = 8.03586e+06 dFdT = 1007

    From function specieThermo<thermo>::T(scalar f, scalar T0, scalar (specieThermo<thermo>::*F)(const scalar) const, scalar (specieThermo<thermo>::*dFdT)(const scalar) const) const
    in file /opt/foam/foam-extend-4.0/src/thermophysicalModels/specie/lnInclude/specieThermoI.H at line 72
    Maximum number of iterations exceeded.  T0 = 7524.75 F = 5.54329e+06 dFdT = 1007

    From function specieThermo<thermo>::T(scalar f, scalar T0, scalar (specieThermo<thermo>::*F)(const scalar) const, scalar (specieThermo<thermo>::*dFdT)(const scalar) const) const
    in file /opt/foam/foam-extend-4.0/src/thermophysicalModels/specie/lnInclude/specieThermoI.H at line 72
    Maximum number of iterations exceeded.  T0 = 7524.75 F = 5.54329e+06 dFdT = 1007

    From function specieThermo<thermo>::T(scalar f, scalar T0, scalar (specieThermo<thermo>::*F)(const scalar) const, scalar (specieThermo<thermo>::*dFdT)(const scalar) const) const
    in file /opt/foam/foam-extend-4.0/src/thermophysicalModels/specie/lnInclude/specieThermoI.H at line 72
    Maximum number of iterations exceeded.  T0 = 10000 F = 8.03586e+06 dFdT = 1007

    From function specieThermo<thermo>::T(scalar f, scalar T0, scalar (specieThermo<thermo>::*F)(const scalar) const, scalar (specieThermo<thermo>::*dFdT)(const scalar) const) const
    in file /opt/foam/foam-extend-4.0/src/thermophysicalModels/specie/lnInclude/specieThermoI.H at line 72
    Maximum number of iterations exceeded.  T0 = 7558.25 F = 5.57702e+06 dFdT = 1007

    From function specieThermo<thermo>::T(scalar f, scalar T0, scalar (specieThermo<thermo>::*F)(const scalar) const, scalar (specieThermo<thermo>::*dFdT)(const scalar) const) const
    in file /opt/foam/foam-extend-4.0/src/thermophysicalModels/specie/lnInclude/specieThermoI.H at line 72
    Maximum number of iterations exceeded.  T0 = 10000 F = 8.03586e+06 dFdT = 1007

    From function specieThermo<thermo>::T(scalar f, scalar T0, scalar (specieThermo<thermo>::*F)(const scalar) const, scalar (specieThermo<thermo>::*dFdT)(const scalar) const) const
    in file /opt/foam/foam-extend-4.0/src/thermophysicalModels/specie/lnInclude/specieThermoI.H at line 72
    Maximum number of iterations exceeded.  T0 = 7524.75 F = 5.54329e+06 dFdT = 1007

    From function specieThermo<thermo>::T(scalar f, scalar T0, scalar (specieThermo<thermo>::*F)(const scalar) const, scalar (specieThermo<thermo>::*dFdT)(const scalar) const) const
    in file /opt/foam/foam-extend-4.0/src/thermophysicalModels/specie/lnInclude/specieThermoI.H at line 72
    Maximum number of iterations exceeded.  T0 = 7524.75 F = 5.54329e+06 dFdT = 1007

    From function specieThermo<thermo>::T(scalar f, scalar T0, scalar (specieThermo<thermo>::*F)(const scalar) const, scalar (specieThermo<thermo>::*dFdT)(const scalar) const) const
    in file /opt/foam/foam-extend-4.0/src/thermophysicalModels/specie/lnInclude/specieThermoI.H at line 72
    Maximum number of iterations exceeded.  T0 = 10000 F = 8.03586e+06 dFdT = 1007
bounding rho, min: -1.46159e+18 max: 2.31558e+18 average: 243.539
new min: 0.001
new max: 10000
bounding p, min: 0.000287699 max: 2.87699e+10 average: 2.04382e+08
new min: 1662.81
new max: 1e+07
diagonal:  Solving for rho, Initial residual = 0, Final residual = 0, No Iterations 0
diagonal:  Solving for rhoUx, Initial residual = 0, Final residual = 0, No Iterations 0
diagonal:  Solving for rhoUy, Initial residual = 0, Final residual = 0, No Iterations 0
diagonal:  Solving for rhoE, Initial residual = 0, Final residual = 0, No Iterations 0
bounding h, min: -4.10419e+31 max: 2.61248e+30 average: -8.58076e+28
new min: 1.007
new max: 1.007e+07

    From function specieThermo<thermo>::T(scalar f, scalar T0, scalar (specieThermo<thermo>::*F)(const scalar) const, scalar (specieThermo<thermo>::*dFdT)(const scalar) const) const
    in file /opt/foam/foam-extend-4.0/src/thermophysicalModels/specie/lnInclude/specieThermoI.H at line 72
    Maximum number of iterations exceeded.  T0 = 7524.75 F = 5.54329e+06 dFdT = 1007

    From function specieThermo<thermo>::T(scalar f, scalar T0, scalar (specieThermo<thermo>::*F)(const scalar) const, scalar (specieThermo<thermo>::*dFdT)(const scalar) const) const
    in file /opt/foam/foam-extend-4.0/src/thermophysicalModels/specie/lnInclude/specieThermoI.H at line 72
    Maximum number of iterations exceeded.  T0 = 7524.75 F = 5.54329e+06 dFdT = 1007

    From function specieThermo<thermo>::T(scalar f, scalar T0, scalar (specieThermo<thermo>::*F)(const scalar) const, scalar (specieThermo<thermo>::*dFdT)(const scalar) const) const
    in file /opt/foam/foam-extend-4.0/src/thermophysicalModels/specie/lnInclude/specieThermoI.H at line 72
    Maximum number of iterations exceeded.  T0 = 10000 F = 8.03586e+06 dFdT = 1007

    From function specieThermo<thermo>::T(scalar f, scalar T0, scalar (specieThermo<thermo>::*F)(const scalar) const, scalar (specieThermo<thermo>::*dFdT)(const scalar) const) const
    in file /opt/foam/foam-extend-4.0/src/thermophysicalModels/specie/lnInclude/specieThermoI.H at line 72
    Maximum number of iterations exceeded.  T0 = 7524.75 F = 5.54329e+06 dFdT = 1007

    From function specieThermo<thermo>::T(scalar f, scalar T0, scalar (specieThermo<thermo>::*F)(const scalar) const, scalar (specieThermo<thermo>::*dFdT)(const scalar) const) const
    in file /opt/foam/foam-extend-4.0/src/thermophysicalModels/specie/lnInclude/specieThermoI.H at line 72
    Maximum number of iterations exceeded.  T0 = 10000 F = 8.03586e+06 dFdT = 1007

    From function specieThermo<thermo>::T(scalar f, scalar T0, scalar (specieThermo<thermo>::*F)(const scalar) const, scalar (specieThermo<thermo>::*dFdT)(const scalar) const) const
    in file /opt/foam/foam-extend-4.0/src/thermophysicalModels/specie/lnInclude/specieThermoI.H at line 72
    Maximum number of iterations exceeded.  T0 = 7524.75 F = 5.54329e+06 dFdT = 1007

    From function specieThermo<thermo>::T(scalar f, scalar T0, scalar (specieThermo<thermo>::*F)(const scalar) const, scalar (specieThermo<thermo>::*dFdT)(const scalar) const) const
    in file /opt/foam/foam-extend-4.0/src/thermophysicalModels/specie/lnInclude/specieThermoI.H at line 72
    Maximum number of iterations exceeded.  T0 = 7524.75 F = 5.54329e+06 dFdT = 1007

    From function specieThermo<thermo>::T(scalar f, scalar T0, scalar (specieThermo<thermo>::*F)(const scalar) const, scalar (specieThermo<thermo>::*dFdT)(const scalar) const) const
    in file /opt/foam/foam-extend-4.0/src/thermophysicalModels/specie/lnInclude/specieThermoI.H at line 72
    Maximum number of iterations exceeded.  T0 = 10000 F = 8.03586e+06 dFdT = 1007

    From function specieThermo<thermo>::T(scalar f, scalar T0, scalar (specieThermo<thermo>::*F)(const scalar) const, scalar (specieThermo<thermo>::*dFdT)(const scalar) const) const
    in file /opt/foam/foam-extend-4.0/src/thermophysicalModels/specie/lnInclude/specieThermoI.H at line 72
    Maximum number of iterations exceeded.  T0 = 7524.75 F = 5.54329e+06 dFdT = 1007

    From function specieThermo<thermo>::T(scalar f, scalar T0, scalar (specieThermo<thermo>::*F)(const scalar) const, scalar (specieThermo<thermo>::*dFdT)(const scalar) const) const
    in file /opt/foam/foam-extend-4.0/src/thermophysicalModels/specie/lnInclude/specieThermoI.H at line 72
    Maximum number of iterations exceeded.  T0 = 10000 F = 8.03586e+06 dFdT = 1007

    From function specieThermo<thermo>::T(scalar f, scalar T0, scalar (specieThermo<thermo>::*F)(const scalar) const, scalar (specieThermo<thermo>::*dFdT)(const scalar) const) const
    in file /opt/foam/foam-extend-4.0/src/thermophysicalModels/specie/lnInclude/specieThermoI.H at line 72
    Maximum number of iterations exceeded.  T0 = 7524.75 F = 5.54329e+06 dFdT = 1007

    From function specieThermo<thermo>::T(scalar f, scalar T0, scalar (specieThermo<thermo>::*F)(const scalar) const, scalar (specieThermo<thermo>::*dFdT)(const scalar) const) const
    in file /opt/foam/foam-extend-4.0/src/thermophysicalModels/specie/lnInclude/specieThermoI.H at line 72
    Maximum number of iterations exceeded.  T0 = 7524.75 F = 5.54329e+06 dFdT = 1007

    From function specieThermo<thermo>::T(scalar f, scalar T0, scalar (specieThermo<thermo>::*F)(const scalar) const, scalar (specieThermo<thermo>::*dFdT)(const scalar) const) const
    in file /opt/foam/foam-extend-4.0/src/thermophysicalModels/specie/lnInclude/specieThermoI.H at line 72
    Maximum number of iterations exceeded.  T0 = 10000 F = 8.03586e+06 dFdT = 1007

    From function specieThermo<thermo>::T(scalar f, scalar T0, scalar (specieThermo<thermo>::*F)(const scalar) const, scalar (specieThermo<thermo>::*dFdT)(const scalar) const) const
    in file /opt/foam/foam-extend-4.0/src/thermophysicalModels/specie/lnInclude/specieThermoI.H at line 72
    Maximum number of iterations exceeded.  T0 = 7524.75 F = 5.54329e+06 dFdT = 1007

    From function specieThermo<thermo>::T(scalar f, scalar T0, scalar (specieThermo<thermo>::*F)(const scalar) const, scalar (specieThermo<thermo>::*dFdT)(const scalar) const) const
    in file /opt/foam/foam-extend-4.0/src/thermophysicalModels/specie/lnInclude/specieThermoI.H at line 72
    Maximum number of iterations exceeded.  T0 = 10000 F = 8.03586e+06 dFdT = 1007
bounding rho, min: -8.79346e+18 max: 7.38387e+18 average: -168.127
new min: 0.001
new max: 10000
bounding p, min: 0.000287699 max: 2.87699e+10 average: 3.67824e+08
new min: 2164.87
new max: 1e+07
diagonal:  Solving for rho, Initial residual = 0, Final residual = 0, No Iterations 0
diagonal:  Solving for rhoUx, Initial residual = 0, Final residual = 0, No Iterations 0
diagonal:  Solving for rhoUy, Initial residual = 0, Final residual = 0, No Iterations 0
diagonal:  Solving for rhoE, Initial residual = 0, Final residual = 0, No Iterations 0
bounding h, min: -3.89012e+36 max: 6.56607e+22 average: -3.94822e+33
new min: 1.007
new max: 1.007e+07

    From function specieThermo<thermo>::T(scalar f, scalar T0, scalar (specieThermo<thermo>::*F)(const scalar) const, scalar (specieThermo<thermo>::*dFdT)(const scalar) const) const
    in file /opt/foam/foam-extend-4.0/src/thermophysicalModels/specie/lnInclude/specieThermoI.H at line 72
    Maximum number of iterations exceeded.  T0 = 9908.65 F = 7.94387e+06 dFdT = 1007

    From function specieThermo<thermo>::T(scalar f, scalar T0, scalar (specieThermo<thermo>::*F)(const scalar) const, scalar (specieThermo<thermo>::*dFdT)(const scalar) const) const
    in file /opt/foam/foam-extend-4.0/src/thermophysicalModels/specie/lnInclude/specieThermoI.H at line 72
    Maximum number of iterations exceeded.  T0 = 7524.75 F = 5.54329e+06 dFdT = 1007

    From function specieThermo<thermo>::T(scalar f, scalar T0, scalar (specieThermo<thermo>::*F)(const scalar) const, scalar (specieThermo<thermo>::*dFdT)(const scalar) const) const
    in file /opt/foam/foam-extend-4.0/src/thermophysicalModels/specie/lnInclude/specieThermoI.H at line 72
    Maximum number of iterations exceeded.  T0 = 7524.75 F = 5.54329e+06 dFdT = 1007

    From function specieThermo<thermo>::T(scalar f, scalar T0, scalar (specieThermo<thermo>::*F)(const scalar) const, scalar (specieThermo<thermo>::*dFdT)(const scalar) const) const
    in file /opt/foam/foam-extend-4.0/src/thermophysicalModels/specie/lnInclude/specieThermoI.H at line 72
    Maximum number of iterations exceeded.  T0 = 10000 F = 8.03586e+06 dFdT = 1007

    From function specieThermo<thermo>::T(scalar f, scalar T0, scalar (specieThermo<thermo>::*F)(const scalar) const, scalar (specieThermo<thermo>::*dFdT)(const scalar) const) const
    in file /opt/foam/foam-extend-4.0/src/thermophysicalModels/specie/lnInclude/specieThermoI.H at line 72
    Maximum number of iterations exceeded.  T0 = 10000 F = 8.03586e+06 dFdT = 1007

    From function specieThermo<thermo>::T(scalar f, scalar T0, scalar (specieThermo<thermo>::*F)(const scalar) const, scalar (specieThermo<thermo>::*dFdT)(const scalar) const) const
    in file /opt/foam/foam-extend-4.0/src/thermophysicalModels/specie/lnInclude/specieThermoI.H at line 72
    Maximum number of iterations exceeded.  T0 = 10000 F = 8.03586e+06 dFdT = 1007

    From function specieThermo<thermo>::T(scalar f, scalar T0, scalar (specieThermo<thermo>::*F)(const scalar) const, scalar (specieThermo<thermo>::*dFdT)(const scalar) const) const
    in file /opt/foam/foam-extend-4.0/src/thermophysicalModels/specie/lnInclude/specieThermoI.H at line 72
    Maximum number of iterations exceeded.  T0 = 10000 F = 8.03586e+06 dFdT = 1007

    From function specieThermo<thermo>::T(scalar f, scalar T0, scalar (specieThermo<thermo>::*F)(const scalar) const, scalar (specieThermo<thermo>::*dFdT)(const scalar) const) const
    in file /opt/foam/foam-extend-4.0/src/thermophysicalModels/specie/lnInclude/specieThermoI.H at line 72
    Maximum number of iterations exceeded.  T0 = 7524.75 F = 5.54329e+06 dFdT = 1007

    From function specieThermo<thermo>::T(scalar f, scalar T0, scalar (specieThermo<thermo>::*F)(const scalar) const, scalar (specieThermo<thermo>::*dFdT)(const scalar) const) const
    in file /opt/foam/foam-extend-4.0/src/thermophysicalModels/specie/lnInclude/specieThermoI.H at line 72
    Maximum number of iterations exceeded.  T0 = 7524.75 F = 5.54329e+06 dFdT = 1007

    From function specieThermo<thermo>::T(scalar f, scalar T0, scalar (specieThermo<thermo>::*F)(const scalar) const, scalar (specieThermo<thermo>::*dFdT)(const scalar) const) const
    in file /opt/foam/foam-extend-4.0/src/thermophysicalModels/specie/lnInclude/specieThermoI.H at line 72
    Maximum number of iterations exceeded.  T0 = 10000 F = 8.03586e+06 dFdT = 1007

    From function specieThermo<thermo>::T(scalar f, scalar T0, scalar (specieThermo<thermo>::*F)(const scalar) const, scalar (specieThermo<thermo>::*dFdT)(const scalar) const) const
    in file /opt/foam/foam-extend-4.0/src/thermophysicalModels/specie/lnInclude/specieThermoI.H at line 72
[...]
    in file /opt/foam/foam-extend-4.0/src/thermophysicalModels/specie/lnInclude/specieThermoI.H at line 72
    Maximum number of iterations exceeded.  T0 = 10000 F = 8.03586e+06 dFdT = 1007

    From function specieThermo<thermo>::T(scalar f, scalar T0, scalar (specieThermo<thermo>::*F)(const scalar) const, scalar (specieThermo<thermo>::*dFdT)(const scalar) const) const
    in file /opt/foam/foam-extend-4.0/src/thermophysicalModels/specie/lnInclude/specieThermoI.H at line 72
    Maximum number of iterations exceeded.  T0 = 7524.75 F = 5.54329e+06 dFdT = 1007

    From function specieThermo<thermo>::T(scalar f, scalar T0, scalar (specieThermo<thermo>::*F)(const scalar) const, scalar (specieThermo<thermo>::*dFdT)(const scalar) const) const
    in file /opt/foam/foam-extend-4.0/src/thermophysicalModels/specie/lnInclude/specieThermoI.H at line 72
    Maximum number of iterations exceeded.  T0 = 7524.75 F = 5.54329e+06 dFdT = 1007

    From function specieThermo<thermo>::T(scalar f, scalar T0, scalar (specieThermo<thermo>::*F)(const scalar) const, scalar (specieThermo<thermo>::*dFdT)(const scalar) const) const
    in file /opt/foam/foam-extend-4.0/src/thermophysicalModels/specie/lnInclude/specieThermoI.H at line 72
    Maximum number of iterations exceeded.  T0 = 10000 F = 8.03586e+06 dFdT = 1007

    From function specieThermo<thermo>::T(scalar f, scalar T0, scalar (specieThermo<thermo>::*F)(const scalar) const, scalar (specieThermo<thermo>::*dFdT)(const scalar) const) const
    in file /opt/foam/foam-extend-4.0/src/thermophysicalModels/specie/lnInclude/specieThermoI.H at line 72
    Maximum number of iterations exceeded.  T0 = 7524.75 F = 5.54329e+06 dFdT = 1007

    From function specieThermo<thermo>::T(scalar f, scalar T0, scalar (specieThermo<thermo>::*F)(const scalar) const, scalar (specieThermo<thermo>::*dFdT)(const scalar) const) const
    in file /opt/foam/foam-extend-4.0/src/thermophysicalModels/specie/lnInclude/specieThermoI.H at line 72
    Maximum number of iterations exceeded.  T0 = 10000 F = 8.03586e+06 dFdT = 1007

    From function specieThermo<thermo>::T(scalar f, scalar T0, scalar (specieThermo<thermo>::*F)(const scalar) const, scalar (specieThermo<thermo>::*dFdT)(const scalar) const) const
    in file /opt/foam/foam-extend-4.0/src/thermophysicalModels/specie/lnInclude/specieThermoI.H at line 72
    Maximum number of iterations exceeded.  T0 = 10000 F = 8.03586e+06 dFdT = 1007

    From function specieThermo<thermo>::T(scalar f, scalar T0, scalar (specieThermo<thermo>::*F)(const scalar) const, scalar (specieThermo<thermo>::*dFdT)(const scalar) const) const
    in file /opt/foam/foam-extend-4.0/src/thermophysicalModels/specie/lnInclude/specieThermoI.H at line 72
    Maximum number of iterations exceeded.  T0 = 10000 F = 8.03586e+06 dFdT = 1007

    From function specieThermo<thermo>::T(scalar f, scalar T0, scalar (specieThermo<thermo>::*F)(const scalar) const, scalar (specieThermo<thermo>::*dFdT)(const scalar) const) const
    in file /opt/foam/foam-extend-4.0/src/thermophysicalModels/specie/lnInclude/specieThermoI.H at line 72
    Maximum number of iterations exceeded.  T0 = 10000 F = 8.03586e+06 dFdT = 1007

    From function specieThermo<thermo>::T(scalar f, scalar T0, scalar (specieThermo<thermo>::*F)(const scalar) const, scalar (specieThermo<thermo>::*dFdT)(const scalar) const) const
    in file /opt/foam/foam-extend-4.0/src/thermophysicalModels/specie/lnInclude/specieThermoI.H at line 72
    Maximum number of iterations exceeded.  T0 = 7524.75 F = 5.54329e+06 dFdT = 1007

    From function specieThermo<thermo>::T(scalar f, scalar T0, scalar (specieThermo<thermo>::*F)(const scalar) const, scalar (specieThermo<thermo>::*dFdT)(const scalar) const) const
    in file /opt/foam/foam-extend-4.0/src/thermophysicalModels/specie/lnInclude/specieThermoI.H at line 72
    Maximum number of iterations exceeded.  T0 = 10000 F = 8.03586e+06 dFdT = 1007

    From function specieThermo<thermo>::T(scalar f, scalar T0, scalar (specieThermo<thermo>::*F)(const scalar) const, scalar (specieThermo<thermo>::*dFdT)(const scalar) const) const
    in file /opt/foam/foam-extend-4.0/src/thermophysicalModels/specie/lnInclude/specieThermoI.H at line 72
    Maximum number of iterations exceeded.  T0 = 7524.75 F = 5.54329e+06 dFdT = 1007

    From function specieThermo<thermo>::T(scalar f, scalar T0, scalar (specieThermo<thermo>::*F)(const scalar) const, scalar (specieThermo<thermo>::*dFdT)(const scalar) const) const
    in file /opt/foam/foam-extend-4.0/src/thermophysicalModels/specie/lnInclude/specieThermoI.H at line 72
    Maximum number of iterations exceeded.  T0 = 10000 F = 8.03586e+06 dFdT = 1007

    From function specieThermo<thermo>::T(scalar f, scalar T0, scalar (specieThermo<thermo>::*F)(const scalar) const, scalar (specieThermo<thermo>::*dFdT)(const scalar) const) const
    in file /opt/foam/foam-extend-4.0/src/thermophysicalModels/specie/lnInclude/specieThermoI.H at line 72
    Maximum number of iterations exceeded.  T0 = 7524.75 F = 5.54329e+06 dFdT = 1007

    From function specieThermo<thermo>::T(scalar f, scalar T0, scalar (specieThermo<thermo>::*F)(const scalar) const, scalar (specieThermo<thermo>::*dFdT)(const scalar) const) const
    in file /opt/foam/foam-extend-4.0/src/thermophysicalModels/specie/lnInclude/specieThermoI.H at line 72
    Maximum number of iterations exceeded.  T0 = 10000 F = 8.03586e+06 dFdT = 1007

    From function specieThermo<thermo>::T(scalar f, scalar T0, scalar (specieThermo<thermo>::*F)(const scalar) const, scalar (specieThermo<thermo>::*dFdT)(const scalar) const) const
    in file /opt/foam/foam-extend-4.0/src/thermophysicalModels/specie/lnInclude/specieThermoI.H at line 72
    Maximum number of iterations exceeded.  T0 = 7524.75 F = 5.54329e+06 dFdT = 1007

    From function specieThermo<thermo>::T(scalar f, scalar T0, scalar (specieThermo<thermo>::*F)(const scalar) const, scalar (specieThermo<thermo>::*dFdT)(const scalar) const) const
    in file /opt/foam/foam-extend-4.0/src/thermophysicalModels/specie/lnInclude/specieThermoI.H at line 72
    Maximum number of iterations exceeded.  T0 = 7524.75 F = 5.54329e+06 dFdT = 1007

    From function specieThermo<thermo>::T(scalar f, scalar T0, scalar (specieThermo<thermo>::*F)(const scalar) const, scalar (specieThermo<thermo>::*dFdT)(const scalar) const) const
    in file /opt/foam/foam-extend-4.0/src/thermophysicalModels/specie/lnInclude/specieThermoI.H at line 72
    Maximum number of iterations exceeded.  T0 = 10000 F = 8.03586e+06 dFdT = 1007

    From function specieThermo<thermo>::T(scalar f, scalar T0, scalar (specieThermo<thermo>::*F)(const scalar) const, scalar (specieThermo<thermo>::*dFdT)(const scalar) const) const
    in file /opt/foam/foam-extend-4.0/src/thermophysicalModels/specie/lnInclude/specieThermoI.H at line 72
    Maximum number of iterations exceeded.  T0 = 7524.75 F = 5.54329e+06 dFdT = 1007

    From function specieThermo<thermo>::T(scalar f, scalar T0, scalar (specieThermo<thermo>::*F)(const scalar) const, scalar (specieThermo<thermo>::*dFdT)(const scalar) const) const
    in file /opt/foam/foam-extend-4.0/src/thermophysicalModels/specie/lnInclude/specieThermoI.H at line 72
    Maximum number of iterations exceeded.  T0 = 7524.75 F = 5.54329e+06 dFdT = 1007

    From function specieThermo<thermo>::T(scalar f, scalar T0, scalar (specieThermo<thermo>::*F)(const scalar) const, scalar (specieThermo<thermo>::*dFdT)(const scalar) const) const
    in file /opt/foam/foam-extend-4.0/src/thermophysicalModels/specie/lnInclude/specieThermoI.H at line 72
    Maximum number of iterations exceeded.  T0 = 10000 F = 8.03586e+06 dFdT = 1007

    From function specieThermo<thermo>::T(scalar f, scalar T0, scalar (specieThermo<thermo>::*F)(const scalar) const, scalar (specieThermo<thermo>::*dFdT)(const scalar) const) const
    in file /opt/foam/foam-extend-4.0/src/thermophysicalModels/specie/lnInclude/specieThermoI.H at line 72
    Maximum number of iterations exceeded.  T0 = 10000 F = 8.03586e+06 dFdT = 1007

    From function specieThermo<thermo>::T(scalar f, scalar T0, scalar (specieThermo<thermo>::*F)(const scalar) const, scalar (specieThermo<thermo>::*dFdT)(const scalar) const) const
    in file /opt/foam/foam-extend-4.0/src/thermophysicalModels/specie/lnInclude/specieThermoI.H at line 72
    Maximum number of iterations exceeded.  T0 = 10000 F = 8.03586e+06 dFdT = 1007

    From function specieThermo<thermo>::T(scalar f, scalar T0, scalar (specieThermo<thermo>::*F)(const scalar) const, scalar (specieThermo<thermo>::*dFdT)(const scalar) const) const
    in file /opt/foam/foam-extend-4.0/src/thermophysicalModels/specie/lnInclude/specieThermoI.H at line 72
    Maximum number of iterations exceeded.  T0 = 7524.75 F = 5.54329e+06 dFdT = 1007

    From function specieThermo<thermo>::T(scalar f, scalar T0, scalar (specieThermo<thermo>::*F)(const scalar) const, scalar (specieThermo<thermo>::*dFdT)(const scalar) const) const
    in file /opt/foam/foam-extend-4.0/src/thermophysicalModels/specie/lnInclude/specieThermoI.H at line 72
    Maximum number of iterations exceeded.  T0 = 7524.75 F = 5.54329e+06 dFdT = 1007

    From function specieThermo<thermo>::T(scalar f, scalar T0, scalar (specieThermo<thermo>::*F)(const scalar) const, scalar (specieThermo<thermo>::*dFdT)(const scalar) const) const
    in file /opt/foam/foam-extend-4.0/src/thermophysicalModels/specie/lnInclude/specieThermoI.H at line 72
    Maximum number of iterations exceeded.  T0 = 10000 F = 8.03586e+06 dFdT = 1007

    From function specieThermo<thermo>::T(scalar f, scalar T0, scalar (specieThermo<thermo>::*F)(const scalar) const, scalar (specieThermo<thermo>::*dFdT)(const scalar) const) const
    in file /opt/foam/foam-extend-4.0/src/thermophysicalModels/specie/lnInclude/specieThermoI.H at line 72
    Maximum number of iterations exceeded.  T0 = 7524.75 F = 5.54329e+06 dFdT = 1007

    From function specieThermo<thermo>::T(scalar f, scalar T0, scalar (specieThermo<thermo>::*F)(const scalar) const, scalar (specieThermo<thermo>::*dFdT)(const scalar) const) const
    in file /opt/foam/foam-extend-4.0/src/thermophysicalModels/specie/lnInclude/specieThermoI.H at line 72
    Maximum number of iterations exceeded.  T0 = 7524.75 F = 5.54329e+06 dFdT = 1007

    From function specieThermo<thermo>::T(scalar f, scalar T0, scalar (specieThermo<thermo>::*F)(const scalar) const, scalar (specieThermo<thermo>::*dFdT)(const scalar) const) const
    in file /opt/foam/foam-extend-4.0/src/thermophysicalModels/specie/lnInclude/specieThermoI.H at line 72
    Maximum number of iterations exceeded.  T0 = 10000 F = 8.03586e+06 dFdT = 1007

    From function specieThermo<thermo>::T(scalar f, scalar T0, scalar (specieThermo<thermo>::*F)(const scalar) const, scalar (specieThermo<thermo>::*dFdT)(const scalar) const) const
    in file /opt/foam/foam-extend-4.0/src/thermophysicalModels/specie/lnInclude/specieThermoI.H at line 72
    Maximum number of iterations exceeded.  T0 = 10000 F = 8.03586e+06 dFdT = 1007

    From function specieThermo<thermo>::T(scalar f, scalar T0, scalar (specieThermo<thermo>::*F)(const scalar) const, scalar (specieThermo<thermo>::*dFdT)(const scalar) const) const
    in file /opt/foam/foam-extend-4.0/src/thermophysicalModels/specie/lnInclude/specieThermoI.H at line 72
    Maximum number of iterations exceeded.  T0 = 10000 F = 8.03586e+06 dFdT = 1007

    From function specieThermo<thermo>::T(scalar f, scalar T0, scalar (specieThermo<thermo>::*F)(const scalar) const, scalar (specieThermo<thermo>::*dFdT)(const scalar) const) const
    in file /opt/foam/foam-extend-4.0/src/thermophysicalModels/specie/lnInclude/specieThermoI.H at line 72
    Maximum number of iterations exceeded.  T0 = 7524.75 F = 5.54329e+06 dFdT = 1007

    From function specieThermo<thermo>::T(scalar f, scalar T0, scalar (specieThermo<thermo>::*F)(const scalar) const, scalar (specieThermo<thermo>::*dFdT)(const scalar) const) const
    in file /opt/foam/foam-extend-4.0/src/thermophysicalModels/specie/lnInclude/specieThermoI.H at line 72
    Maximum number of iterations exceeded.  T0 = 7524.75 F = 5.54329e+06 dFdT = 1007

    From function specieThermo<thermo>::T(scalar f, scalar T0, scalar (specieThermo<thermo>::*F)(const scalar) const, scalar (specieThermo<thermo>::*dFdT)(const scalar) const) const
    in file /opt/foam/foam-extend-4.0/src/thermophysicalModels/specie/lnInclude/specieThermoI.H at line 72
    Maximum number of iterations exceeded.  T0 = 10000 F = 8.03586e+06 dFdT = 1007

    From function specieThermo<thermo>::T(scalar f, scalar T0, scalar (specieThermo<thermo>::*F)(const scalar) const, scalar (specieThermo<thermo>::*dFdT)(const scalar) const) const
    in file /opt/foam/foam-extend-4.0/src/thermophysicalModels/specie/lnInclude/specieThermoI.H at line 72
    Maximum number of iterations exceeded.  T0 = 7524.75 F = 5.54329e+06 dFdT = 1007

    From function specieThermo<thermo>::T(scalar f, scalar T0, scalar (specieThermo<thermo>::*F)(const scalar) const, scalar (specieThermo<thermo>::*dFdT)(const scalar) const) const
    in file /opt/foam/foam-extend-4.0/src/thermophysicalModels/specie/lnInclude/specieThermoI.H at line 72
    Maximum number of iterations exceeded.  T0 = 7524.75 F = 5.54329e+06 dFdT = 1007

    From function specieThermo<thermo>::T(scalar f, scalar T0, scalar (specieThermo<thermo>::*F)(const scalar) const, scalar (specieThermo<thermo>::*dFdT)(const scalar) const) const
    in file /opt/foam/foam-extend-4.0/src/thermophysicalModels/specie/lnInclude/specieThermoI.H at line 72
    Maximum number of iterations exceeded.  T0 = 10000 F = 8.03586e+06 dFdT = 1007

    From function specieThermo<thermo>::T(scalar f, scalar T0, scalar (specieThermo<thermo>::*F)(const scalar) const, scalar (specieThermo<thermo>::*dFdT)(const scalar) const) const
    in file /opt/foam/foam-extend-4.0/src/thermophysicalModels/specie/lnInclude/specieThermoI.H at line 72
    Maximum number of iterations exceeded.  T0 = 7524.75 F = 5.54329e+06 dFdT = 1007

    From function specieThermo<thermo>::T(scalar f, scalar T0, scalar (specieThermo<thermo>::*F)(const scalar) const, scalar (specieThermo<thermo>::*dFdT)(const scalar) const) const
    in file /opt/foam/foam-extend-4.0/src/thermophysicalModels/specie/lnInclude/specieThermoI.H at line 72
    Maximum number of iterations exceeded.  T0 = 7524.75 F = 5.54329e+06 dFdT = 1007

    From function specieThermo<thermo>::T(scalar f, scalar T0, scalar (specieThermo<thermo>::*F)(const scalar) const, scalar (specieThermo<thermo>::*dFdT)(const scalar) const) const
    in file /opt/foam/foam-extend-4.0/src/thermophysicalModels/specie/lnInclude/specieThermoI.H at line 72
    Maximum number of iterations exceeded.  T0 = 10000 F = 8.03586e+06 dFdT = 1007

    From function specieThermo<thermo>::T(scalar f, scalar T0, scalar (specieThermo<thermo>::*F)(const scalar) const, scalar (specieThermo<thermo>::*dFdT)(const scalar) const) const
    in file /opt/foam/foam-extend-4.0/src/thermophysicalModels/specie/lnInclude/specieThermoI.H at line 72
    Maximum number of iterations exceeded.  T0 = 10000 F = 8.03586e+06 dFdT = 1007

    From function specieThermo<thermo>::T(scalar f, scalar T0, scalar (specieThermo<thermo>::*F)(const scalar) const, scalar (specieThermo<thermo>::*dFdT)(const scalar) const) const
    in file /opt/foam/foam-extend-4.0/src/thermophysicalModels/specie/lnInclude/specieThermoI.H at line 72
    Maximum number of iterations exceeded.  T0 = 10000 F = 8.03586e+06 dFdT = 1007

    From function specieThermo<thermo>::T(scalar f, scalar T0, scalar (specieThermo<thermo>::*F)(const scalar) const, scalar (specieThermo<thermo>::*dFdT)(const scalar) const) const
    in file /opt/foam/foam-extend-4.0/src/thermophysicalModels/specie/lnInclude/specieThermoI.H at line 72
    Maximum number of iterations exceeded.  T0 = 10000 F = 8.03586e+06 dFdT = 1007

    From function specieThermo<thermo>::T(scalar f, scalar T0, scalar (specieThermo<thermo>::*F)(const scalar) const, scalar (specieThermo<thermo>::*dFdT)(const scalar) const) const
    in file /opt/foam/foam-extend-4.0/src/thermophysicalModels/specie/lnInclude/specieThermoI.H at line 72
    Maximum number of iterations exceeded.  T0 = 10000 F = 8.03586e+06 dFdT = 1007

    From function specieThermo<thermo>::T(scalar f, scalar T0, scalar (specieThermo<thermo>::*F)(const scalar) const, scalar (specieThermo<thermo>::*dFdT)(const scalar) const) const
    in file /opt/foam/foam-extend-4.0/src/thermophysicalModels/specie/lnInclude/specieThermoI.H at line 72
    Maximum number of iterations exceeded.  T0 = 10000 F = 8.03586e+06 dFdT = 1007

    From function specieThermo<thermo>::T(scalar f, scalar T0, scalar (specieThermo<thermo>::*F)(const scalar) const, scalar (specieThermo<thermo>::*dFdT)(const scalar) const) const
    in file /opt/foam/foam-extend-4.0/src/thermophysicalModels/specie/lnInclude/specieThermoI.H at line 72
    Maximum number of iterations exceeded.  T0 = 10000 F = 8.03586e+06 dFdT = 1007

    From function specieThermo<thermo>::T(scalar f, scalar T0, scalar (specieThermo<thermo>::*F)(const scalar) const, scalar (specieThermo<thermo>::*dFdT)(const scalar) const) const
    in file /opt/foam/foam-extend-4.0/src/thermophysicalModels/specie/lnInclude/specieThermoI.H at line 72
    Maximum number of iterations exceeded.  T0 = 10000 F = 8.03586e+06 dFdT = 1007

    From function specieThermo<thermo>::T(scalar f, scalar T0, scalar (specieThermo<thermo>::*F)(const scalar) const, scalar (specieThermo<thermo>::*dFdT)(const scalar) const) const
    in file /opt/foam/foam-extend-4.0/src/thermophysicalModels/specie/lnInclude/specieThermoI.H at line 72
    Maximum number of iterations exceeded.  T0 = 10000 F = 8.03586e+06 dFdT = 1007

    From function specieThermo<thermo>::T(scalar f, scalar T0, scalar (specieThermo<thermo>::*F)(const scalar) const, scalar (specieThermo<thermo>::*dFdT)(const scalar) const) const
    in file /opt/foam/foam-extend-4.0/src/thermophysicalModels/specie/lnInclude/specieThermoI.H at line 72
    Maximum number of iterations exceeded.  T0 = 7524.75 F = 5.54329e+06 dFdT = 1007

    From function specieThermo<thermo>::T(scalar f, scalar T0, scalar (specieThermo<thermo>::*F)(const scalar) const, scalar (specieThermo<thermo>::*dFdT)(const scalar) const) const
    in file /opt/foam/foam-extend-4.0/src/thermophysicalModels/specie/lnInclude/specieThermoI.H at line 72
    Maximum number of iterations exceeded.  T0 = 10000 F = 8.03586e+06 dFdT = 1007

    From function specieThermo<thermo>::T(scalar f, scalar T0, scalar (specieThermo<thermo>::*F)(const scalar) const, scalar (specieThermo<thermo>::*dFdT)(const scalar) const) const
    in file /opt/foam/foam-extend-4.0/src/thermophysicalModels/specie/lnInclude/specieThermoI.H at line 72
    Maximum number of iterations exceeded.  T0 = 10000 F = 8.03586e+06 dFdT = 1007

    From function specieThermo<thermo>::T(scalar f, scalar T0, scalar (specieThermo<thermo>::*F)(const scalar) const, scalar (specieThermo<thermo>::*dFdT)(const scalar) const) const
    in file /opt/foam/foam-extend-4.0/src/thermophysicalModels/specie/lnInclude/specieThermoI.H at line 72
    Maximum number of iterations exceeded.  T0 = 10000 F = 8.03586e+06 dFdT = 1007

    From function specieThermo<thermo>::T(scalar f, scalar T0, scalar (specieThermo<thermo>::*F)(const scalar) const, scalar (specieThermo<thermo>::*dFdT)(const scalar) const) const
    in file /opt/foam/foam-extend-4.0/src/thermophysicalModels/specie/lnInclude/specieThermoI.H at line 72
    Maximum number of iterations exceeded.  T0 = 7524.75 F = 5.54329e+06 dFdT = 1007
bounding rho, min: -1.70109e+100 max: 2.79366e+100 average: -6.14986e+83
new min: 0.001
new max: 10000
bounding p, min: 0.000287699 max: 2.87699e+10 average: 7.66586e+09
new min: 0.001
new max: 1e+07
