/*---------------------------------------------------------------------------*\
| =========                 |                                                 |
| \\      /  F ield         | foam-extend: Open Source CFD                    |
|  \\    /   O peration     | Version:     4.0                                |
|   \\  /    A nd           | Web:         http://www.foam-extend.org         |
|    \\/     M anipulation  | For copyright notice see file Copyright         |
\*---------------------------------------------------------------------------*/
Build    : 4.0-268bb07d15d8
Exec     : blockMesh
Date     : Apr 26 2022
Time     : 11:36:04
Host     : node358.pi.sjtu.edu.cn
PID      : 1627955
CtrlDict : "/dssg/home/acct-medgm/medgm/06-DLR-buffet/Workspace/test_cases/03-dbns-shocktube/00-test-400-roe-firstOrder/system/controlDict"
Case     : /dssg/home/acct-medgm/medgm/06-DLR-buffet/Workspace/test_cases/03-dbns-shocktube/00-test-400-roe-firstOrder
nProcs   : 1
SigFpe   : Enabling floating point exception trapping (FOAM_SIGFPE).

// * * * * * * * * * * * * * * * * * * * * * * * * * * * * * * * * * * * * * //
Create time


Creating block mesh from
    "/dssg/home/acct-medgm/medgm/06-DLR-buffet/Workspace/test_cases/03-dbns-shocktube/00-test-400-roe-firstOrder/constant/polyMesh/blockMeshDict"

Creating curved edges
Creating topology blocks
Creating topology patches

Reading patches section

Creating block mesh topology

Reading physicalType from existing boundary file

Default patch type set to empty
--> FOAM Warning : 
    From function polyMesh::polyMesh(... construct from shapes...)
    in file meshes/polyMesh/polyMeshFromShapeMesh.C at line 903
    Found 2 undefined faces in mesh; adding to default patch.

Check topology

	Basic statistics
		Number of internal faces : 0
		Number of boundary faces : 6
		Number of defined boundary faces : 6
		Number of undefined boundary faces : 0
	Checking patch -> block consistency

Creating block offsets
Creating merge list .

Creating polyMesh from blockMesh
Creating patches
Creating cells
Creating points with scale 1
    Block 0 cell size :
        i : 0.0025 .. 0.0025
        j : 0.1 .. 0.1
        k : 0.1 .. 0.1


Writing polyMesh
----------------
Mesh Information
----------------
  boundingBox: (0 0 0) (1 0.1 0.1)
  nPoints: 1604
  nCells: 400
  nFaces: 2001
  nInternalFaces: 399
----------------
Patches
----------------
  patch 0 (start: 399 size: 1) name: inlet
  patch 1 (start: 400 size: 1) name: outlet
  patch 2 (start: 401 size: 400) name: bottom
  patch 3 (start: 801 size: 400) name: top
  patch 4 (start: 1201 size: 800) name: defaultFaces

End

