/*---------------------------------------------------------------------------*\
| =========                 |                                                 |
| \\      /  F ield         | foam-extend: Open Source CFD                    |
|  \\    /   O peration     | Version:     4.0                                |
|   \\  /    A nd           | Web:         http://www.foam-extend.org         |
|    \\/     M anipulation  | For copyright notice see file Copyright         |
\*---------------------------------------------------------------------------*/
Build    : 4.0-268bb07d15d8
Exec     : dbnsFoam
Date     : Apr 26 2022
Time     : 13:00:24
Host     : node358.pi.sjtu.edu.cn
PID      : 1649593
CtrlDict : "/dssg/home/acct-medgm/medgm/06-DLR-buffet/Workspace/test_cases/03-dbns-shocktube/00-test-580-roe-firstOrder/system/controlDict"
Case     : /dssg/home/acct-medgm/medgm/06-DLR-buffet/Workspace/test_cases/03-dbns-shocktube/00-test-580-roe-firstOrder
nProcs   : 1
SigFpe   : Enabling floating point exception trapping (FOAM_SIGFPE).

// * * * * * * * * * * * * * * * * * * * * * * * * * * * * * * * * * * * * * //
Create time

Create mesh for time = 0

Reading thermophysical properties

Selecting thermodynamics package hPsiThermo<pureMixture<constTransport<specieThermo<hConstThermo<perfectGas>>>>>
Reading field rho

Reading field U

Selecting numericFlux roeFluxfirstOrderLimiter

Starting time loop

Courant Number mean: 0 max: 0 velocity magnitude: 0

 Time = 1e-05
diagonal:  Solving for rho, Initial residual = 0, Final residual = 0, No Iterations 0
diagonal:  Solving for rhoUx, Initial residual = 0, Final residual = 0, No Iterations 0
diagonal:  Solving for rhoUy, Initial residual = 0, Final residual = 0, No Iterations 0
diagonal:  Solving for rhoE, Initial residual = 0, Final residual = 0, No Iterations 0
diagonal:  Solving for rho, Initial residual = 0, Final residual = 0, No Iterations 0
diagonal:  Solving for rhoUx, Initial residual = 0, Final residual = 0, No Iterations 0
diagonal:  Solving for rhoUy, Initial residual = 0, Final residual = 0, No Iterations 0
diagonal:  Solving for rhoE, Initial residual = 0, Final residual = 0, No Iterations 0
diagonal:  Solving for rho, Initial residual = 0, Final residual = 0, No Iterations 0
diagonal:  Solving for rhoUx, Initial residual = 0, Final residual = 0, No Iterations 0
diagonal:  Solving for rhoUy, Initial residual = 0, Final residual = 0, No Iterations 0
diagonal:  Solving for rhoE, Initial residual = 0, Final residual = 0, No Iterations 0
diagonal:  Solving for rho, Initial residual = 0, Final residual = 0, No Iterations 0
diagonal:  Solving for rhoUx, Initial residual = 0, Final residual = 0, No Iterations 0
diagonal:  Solving for rhoUy, Initial residual = 0, Final residual = 0, No Iterations 0
diagonal:  Solving for rhoE, Initial residual = 0, Final residual = 0, No Iterations 0
    ExecutionTime = 0.01 s

Courant Number mean: 0.00386087 max: 0.72757 velocity magnitude: 125.443

 Time = 2e-05
diagonal:  Solving for rho, Initial residual = 0, Final residual = 0, No Iterations 0
diagonal:  Solving for rhoUx, Initial residual = 0, Final residual = 0, No Iterations 0
diagonal:  Solving for rhoUy, Initial residual = 0, Final residual = 0, No Iterations 0
diagonal:  Solving for rhoE, Initial residual = 0, Final residual = 0, No Iterations 0
diagonal:  Solving for rho, Initial residual = 0, Final residual = 0, No Iterations 0
diagonal:  Solving for rhoUx, Initial residual = 0, Final residual = 0, No Iterations 0
diagonal:  Solving for rhoUy, Initial residual = 0, Final residual = 0, No Iterations 0
diagonal:  Solving for rhoE, Initial residual = 0, Final residual = 0, No Iterations 0
diagonal:  Solving for rho, Initial residual = 0, Final residual = 0, No Iterations 0
diagonal:  Solving for rhoUx, Initial residual = 0, Final residual = 0, No Iterations 0
diagonal:  Solving for rhoUy, Initial residual = 0, Final residual = 0, No Iterations 0
diagonal:  Solving for rhoE, Initial residual = 0, Final residual = 0, No Iterations 0
diagonal:  Solving for rho, Initial residual = 0, Final residual = 0, No Iterations 0
diagonal:  Solving for rhoUx, Initial residual = 0, Final residual = 0, No Iterations 0
diagonal:  Solving for rhoUy, Initial residual = 0, Final residual = 0, No Iterations 0
diagonal:  Solving for rhoE, Initial residual = 0, Final residual = 0, No Iterations 0
    ExecutionTime = 0.02 s

Courant Number mean: 0.00895154 max: 0.757939 velocity magnitude: 130.679

 Time = 3e-05
diagonal:  Solving for rho, Initial residual = 0, Final residual = 0, No Iterations 0
diagonal:  Solving for rhoUx, Initial residual = 0, Final residual = 0, No Iterations 0
diagonal:  Solving for rhoUy, Initial residual = 0, Final residual = 0, No Iterations 0
diagonal:  Solving for rhoE, Initial residual = 0, Final residual = 0, No Iterations 0
diagonal:  Solving for rho, Initial residual = 0, Final residual = 0, No Iterations 0
diagonal:  Solving for rhoUx, Initial residual = 0, Final residual = 0, No Iterations 0
diagonal:  Solving for rhoUy, Initial residual = 0, Final residual = 0, No Iterations 0
diagonal:  Solving for rhoE, Initial residual = 0, Final residual = 0, No Iterations 0
diagonal:  Solving for rho, Initial residual = 0, Final residual = 0, No Iterations 0
diagonal:  Solving for rhoUx, Initial residual = 0, Final residual = 0, No Iterations 0
diagonal:  Solving for rhoUy, Initial residual = 0, Final residual = 0, No Iterations 0
diagonal:  Solving for rhoE, Initial residual = 0, Final residual = 0, No Iterations 0
diagonal:  Solving for rho, Initial residual = 0, Final residual = 0, No Iterations 0
diagonal:  Solving for rhoUx, Initial residual = 0, Final residual = 0, No Iterations 0
diagonal:  Solving for rhoUy, Initial residual = 0, Final residual = 0, No Iterations 0
diagonal:  Solving for rhoE, Initial residual = 0, Final residual = 0, No Iterations 0
    ExecutionTime = 0.04 s

Courant Number mean: 0.0140336 max: 0.768866 velocity magnitude: 132.563

 Time = 4e-05
diagonal:  Solving for rho, Initial residual = 0, Final residual = 0, No Iterations 0
diagonal:  Solving for rhoUx, Initial residual = 0, Final residual = 0, No Iterations 0
diagonal:  Solving for rhoUy, Initial residual = 0, Final residual = 0, No Iterations 0
diagonal:  Solving for rhoE, Initial residual = 0, Final residual = 0, No Iterations 0
diagonal:  Solving for rho, Initial residual = 0, Final residual = 0, No Iterations 0
diagonal:  Solving for rhoUx, Initial residual = 0, Final residual = 0, No Iterations 0
diagonal:  Solving for rhoUy, Initial residual = 0, Final residual = 0, No Iterations 0
diagonal:  Solving for rhoE, Initial residual = 0, Final residual = 0, No Iterations 0
diagonal:  Solving for rho, Initial residual = 0, Final residual = 0, No Iterations 0
diagonal:  Solving for rhoUx, Initial residual = 0, Final residual = 0, No Iterations 0
diagonal:  Solving for rhoUy, Initial residual = 0, Final residual = 0, No Iterations 0
diagonal:  Solving for rhoE, Initial residual = 0, Final residual = 0, No Iterations 0
diagonal:  Solving for rho, Initial residual = 0, Final residual = 0, No Iterations 0
diagonal:  Solving for rhoUx, Initial residual = 0, Final residual = 0, No Iterations 0
diagonal:  Solving for rhoUy, Initial residual = 0, Final residual = 0, No Iterations 0
diagonal:  Solving for rhoE, Initial residual = 0, Final residual = 0, No Iterations 0
    ExecutionTime = 0.04 s

Courant Number mean: 0.0191134 max: 0.766081 velocity magnitude: 132.083

 Time = 5e-05
diagonal:  Solving for rho, Initial residual = 0, Final residual = 0, No Iterations 0
diagonal:  Solving for rhoUx, Initial residual = 0, Final residual = 0, No Iterations 0
diagonal:  Solving for rhoUy, Initial residual = 0, Final residual = 0, No Iterations 0
diagonal:  Solving for rhoE, Initial residual = 0, Final residual = 0, No Iterations 0
diagonal:  Solving for rho, Initial residual = 0, Final residual = 0, No Iterations 0
diagonal:  Solving for rhoUx, Initial residual = 0, Final residual = 0, No Iterations 0
diagonal:  Solving for rhoUy, Initial residual = 0, Final residual = 0, No Iterations 0
diagonal:  Solving for rhoE, Initial residual = 0, Final residual = 0, No Iterations 0
diagonal:  Solving for rho, Initial residual = 0, Final residual = 0, No Iterations 0
diagonal:  Solving for rhoUx, Initial residual = 0, Final residual = 0, No Iterations 0
diagonal:  Solving for rhoUy, Initial residual = 0, Final residual = 0, No Iterations 0
diagonal:  Solving for rhoE, Initial residual = 0, Final residual = 0, No Iterations 0
diagonal:  Solving for rho, Initial residual = 0, Final residual = 0, No Iterations 0
diagonal:  Solving for rhoUx, Initial residual = 0, Final residual = 0, No Iterations 0
diagonal:  Solving for rhoUy, Initial residual = 0, Final residual = 0, No Iterations 0
diagonal:  Solving for rhoE, Initial residual = 0, Final residual = 0, No Iterations 0
    ExecutionTime = 0.05 s

Courant Number mean: 0.024193 max: 0.764692 velocity magnitude: 131.843

 Time = 6e-05
diagonal:  Solving for rho, Initial residual = 0, Final residual = 0, No Iterations 0
diagonal:  Solving for rhoUx, Initial residual = 0, Final residual = 0, No Iterations 0
diagonal:  Solving for rhoUy, Initial residual = 0, Final residual = 0, No Iterations 0
diagonal:  Solving for rhoE, Initial residual = 0, Final residual = 0, No Iterations 0
diagonal:  Solving for rho, Initial residual = 0, Final residual = 0, No Iterations 0
diagonal:  Solving for rhoUx, Initial residual = 0, Final residual = 0, No Iterations 0
diagonal:  Solving for rhoUy, Initial residual = 0, Final residual = 0, No Iterations 0
diagonal:  Solving for rhoE, Initial residual = 0, Final residual = 0, No Iterations 0
diagonal:  Solving for rho, Initial residual = 0, Final residual = 0, No Iterations 0
diagonal:  Solving for rhoUx, Initial residual = 0, Final residual = 0, No Iterations 0
diagonal:  Solving for rhoUy, Initial residual = 0, Final residual = 0, No Iterations 0
diagonal:  Solving for rhoE, Initial residual = 0, Final residual = 0, No Iterations 0
diagonal:  Solving for rho, Initial residual = 0, Final residual = 0, No Iterations 0
diagonal:  Solving for rhoUx, Initial residual = 0, Final residual = 0, No Iterations 0
diagonal:  Solving for rhoUy, Initial residual = 0, Final residual = 0, No Iterations 0
diagonal:  Solving for rhoE, Initial residual = 0, Final residual = 0, No Iterations 0
    ExecutionTime = 0.06 s

Courant Number mean: 0.0292722 max: 0.763078 velocity magnitude: 131.565

 Time = 7e-05
diagonal:  Solving for rho, Initial residual = 0, Final residual = 0, No Iterations 0
diagonal:  Solving for rhoUx, Initial residual = 0, Final residual = 0, No Iterations 0
diagonal:  Solving for rhoUy, Initial residual = 0, Final residual = 0, No Iterations 0
diagonal:  Solving for rhoE, Initial residual = 0, Final residual = 0, No Iterations 0
diagonal:  Solving for rho, Initial residual = 0, Final residual = 0, No Iterations 0
diagonal:  Solving for rhoUx, Initial residual = 0, Final residual = 0, No Iterations 0
diagonal:  Solving for rhoUy, Initial residual = 0, Final residual = 0, No Iterations 0
diagonal:  Solving for rhoE, Initial residual = 0, Final residual = 0, No Iterations 0
diagonal:  Solving for rho, Initial residual = 0, Final residual = 0, No Iterations 0
diagonal:  Solving for rhoUx, Initial residual = 0, Final residual = 0, No Iterations 0
diagonal:  Solving for rhoUy, Initial residual = 0, Final residual = 0, No Iterations 0
diagonal:  Solving for rhoE, Initial residual = 0, Final residual = 0, No Iterations 0
diagonal:  Solving for rho, Initial residual = 0, Final residual = 0, No Iterations 0
diagonal:  Solving for rhoUx, Initial residual = 0, Final residual = 0, No Iterations 0
diagonal:  Solving for rhoUy, Initial residual = 0, Final residual = 0, No Iterations 0
diagonal:  Solving for rhoE, Initial residual = 0, Final residual = 0, No Iterations 0
    ExecutionTime = 0.06 s

Courant Number mean: 0.0343509 max: 0.762131 velocity magnitude: 131.402

 Time = 8e-05
diagonal:  Solving for rho, Initial residual = 0, Final residual = 0, No Iterations 0
diagonal:  Solving for rhoUx, Initial residual = 0, Final residual = 0, No Iterations 0
diagonal:  Solving for rhoUy, Initial residual = 0, Final residual = 0, No Iterations 0
diagonal:  Solving for rhoE, Initial residual = 0, Final residual = 0, No Iterations 0
diagonal:  Solving for rho, Initial residual = 0, Final residual = 0, No Iterations 0
diagonal:  Solving for rhoUx, Initial residual = 0, Final residual = 0, No Iterations 0
diagonal:  Solving for rhoUy, Initial residual = 0, Final residual = 0, No Iterations 0
diagonal:  Solving for rhoE, Initial residual = 0, Final residual = 0, No Iterations 0
diagonal:  Solving for rho, Initial residual = 0, Final residual = 0, No Iterations 0
diagonal:  Solving for rhoUx, Initial residual = 0, Final residual = 0, No Iterations 0
diagonal:  Solving for rhoUy, Initial residual = 0, Final residual = 0, No Iterations 0
diagonal:  Solving for rhoE, Initial residual = 0, Final residual = 0, No Iterations 0
diagonal:  Solving for rho, Initial residual = 0, Final residual = 0, No Iterations 0
diagonal:  Solving for rhoUx, Initial residual = 0, Final residual = 0, No Iterations 0
diagonal:  Solving for rhoUy, Initial residual = 0, Final residual = 0, No Iterations 0
diagonal:  Solving for rhoE, Initial residual = 0, Final residual = 0, No Iterations 0
    ExecutionTime = 0.07 s

Courant Number mean: 0.0394288 max: 0.761496 velocity magnitude: 131.292

 Time = 9e-05
diagonal:  Solving for rho, Initial residual = 0, Final residual = 0, No Iterations 0
diagonal:  Solving for rhoUx, Initial residual = 0, Final residual = 0, No Iterations 0
diagonal:  Solving for rhoUy, Initial residual = 0, Final residual = 0, No Iterations 0
diagonal:  Solving for rhoE, Initial residual = 0, Final residual = 0, No Iterations 0
diagonal:  Solving for rho, Initial residual = 0, Final residual = 0, No Iterations 0
diagonal:  Solving for rhoUx, Initial residual = 0, Final residual = 0, No Iterations 0
diagonal:  Solving for rhoUy, Initial residual = 0, Final residual = 0, No Iterations 0
diagonal:  Solving for rhoE, Initial residual = 0, Final residual = 0, No Iterations 0
diagonal:  Solving for rho, Initial residual = 0, Final residual = 0, No Iterations 0
diagonal:  Solving for rhoUx, Initial residual = 0, Final residual = 0, No Iterations 0
diagonal:  Solving for rhoUy, Initial residual = 0, Final residual = 0, No Iterations 0
diagonal:  Solving for rhoE, Initial residual = 0, Final residual = 0, No Iterations 0
diagonal:  Solving for rho, Initial residual = 0, Final residual = 0, No Iterations 0
diagonal:  Solving for rhoUx, Initial residual = 0, Final residual = 0, No Iterations 0
diagonal:  Solving for rhoUy, Initial residual = 0, Final residual = 0, No Iterations 0
diagonal:  Solving for rhoE, Initial residual = 0, Final residual = 0, No Iterations 0
    ExecutionTime = 0.08 s

Courant Number mean: 0.0445062 max: 0.760891 velocity magnitude: 131.188

 Time = 0.0001
diagonal:  Solving for rho, Initial residual = 0, Final residual = 0, No Iterations 0
diagonal:  Solving for rhoUx, Initial residual = 0, Final residual = 0, No Iterations 0
diagonal:  Solving for rhoUy, Initial residual = 0, Final residual = 0, No Iterations 0
diagonal:  Solving for rhoE, Initial residual = 0, Final residual = 0, No Iterations 0
diagonal:  Solving for rho, Initial residual = 0, Final residual = 0, No Iterations 0
diagonal:  Solving for rhoUx, Initial residual = 0, Final residual = 0, No Iterations 0
diagonal:  Solving for rhoUy, Initial residual = 0, Final residual = 0, No Iterations 0
diagonal:  Solving for rhoE, Initial residual = 0, Final residual = 0, No Iterations 0
diagonal:  Solving for rho, Initial residual = 0, Final residual = 0, No Iterations 0
diagonal:  Solving for rhoUx, Initial residual = 0, Final residual = 0, No Iterations 0
diagonal:  Solving for rhoUy, Initial residual = 0, Final residual = 0, No Iterations 0
diagonal:  Solving for rhoE, Initial residual = 0, Final residual = 0, No Iterations 0
diagonal:  Solving for rho, Initial residual = 0, Final residual = 0, No Iterations 0
diagonal:  Solving for rhoUx, Initial residual = 0, Final residual = 0, No Iterations 0
diagonal:  Solving for rhoUy, Initial residual = 0, Final residual = 0, No Iterations 0
diagonal:  Solving for rhoE, Initial residual = 0, Final residual = 0, No Iterations 0
    ExecutionTime = 0.09 s

Courant Number mean: 0.0495829 max: 0.760313 velocity magnitude: 131.088

 Time = 0.00011
diagonal:  Solving for rho, Initial residual = 0, Final residual = 0, No Iterations 0
diagonal:  Solving for rhoUx, Initial residual = 0, Final residual = 0, No Iterations 0
diagonal:  Solving for rhoUy, Initial residual = 0, Final residual = 0, No Iterations 0
diagonal:  Solving for rhoE, Initial residual = 0, Final residual = 0, No Iterations 0
diagonal:  Solving for rho, Initial residual = 0, Final residual = 0, No Iterations 0
diagonal:  Solving for rhoUx, Initial residual = 0, Final residual = 0, No Iterations 0
diagonal:  Solving for rhoUy, Initial residual = 0, Final residual = 0, No Iterations 0
diagonal:  Solving for rhoE, Initial residual = 0, Final residual = 0, No Iterations 0
diagonal:  Solving for rho, Initial residual = 0, Final residual = 0, No Iterations 0
diagonal:  Solving for rhoUx, Initial residual = 0, Final residual = 0, No Iterations 0
diagonal:  Solving for rhoUy, Initial residual = 0, Final residual = 0, No Iterations 0
diagonal:  Solving for rhoE, Initial residual = 0, Final residual = 0, No Iterations 0
diagonal:  Solving for rho, Initial residual = 0, Final residual = 0, No Iterations 0
diagonal:  Solving for rhoUx, Initial residual = 0, Final residual = 0, No Iterations 0
diagonal:  Solving for rhoUy, Initial residual = 0, Final residual = 0, No Iterations 0
diagonal:  Solving for rhoE, Initial residual = 0, Final residual = 0, No Iterations 0
    ExecutionTime = 0.09 s

Courant Number mean: 0.0546591 max: 0.760021 velocity magnitude: 131.038

 Time = 0.00012
diagonal:  Solving for rho, Initial residual = 0, Final residual = 0, No Iterations 0
diagonal:  Solving for rhoUx, Initial residual = 0, Final residual = 0, No Iterations 0
diagonal:  Solving for rhoUy, Initial residual = 0, Final residual = 0, No Iterations 0
diagonal:  Solving for rhoE, Initial residual = 0, Final residual = 0, No Iterations 0
diagonal:  Solving for rho, Initial residual = 0, Final residual = 0, No Iterations 0
diagonal:  Solving for rhoUx, Initial residual = 0, Final residual = 0, No Iterations 0
diagonal:  Solving for rhoUy, Initial residual = 0, Final residual = 0, No Iterations 0
diagonal:  Solving for rhoE, Initial residual = 0, Final residual = 0, No Iterations 0
diagonal:  Solving for rho, Initial residual = 0, Final residual = 0, No Iterations 0
diagonal:  Solving for rhoUx, Initial residual = 0, Final residual = 0, No Iterations 0
diagonal:  Solving for rhoUy, Initial residual = 0, Final residual = 0, No Iterations 0
diagonal:  Solving for rhoE, Initial residual = 0, Final residual = 0, No Iterations 0
diagonal:  Solving for rho, Initial residual = 0, Final residual = 0, No Iterations 0
diagonal:  Solving for rhoUx, Initial residual = 0, Final residual = 0, No Iterations 0
diagonal:  Solving for rhoUy, Initial residual = 0, Final residual = 0, No Iterations 0
diagonal:  Solving for rhoE, Initial residual = 0, Final residual = 0, No Iterations 0
    ExecutionTime = 0.1 s

Courant Number mean: 0.0597349 max: 0.7597 velocity magnitude: 130.983

 Time = 0.00013
diagonal:  Solving for rho, Initial residual = 0, Final residual = 0, No Iterations 0
diagonal:  Solving for rhoUx, Initial residual = 0, Final residual = 0, No Iterations 0
diagonal:  Solving for rhoUy, Initial residual = 0, Final residual = 0, No Iterations 0
diagonal:  Solving for rhoE, Initial residual = 0, Final residual = 0, No Iterations 0
diagonal:  Solving for rho, Initial residual = 0, Final residual = 0, No Iterations 0
diagonal:  Solving for rhoUx, Initial residual = 0, Final residual = 0, No Iterations 0
diagonal:  Solving for rhoUy, Initial residual = 0, Final residual = 0, No Iterations 0
diagonal:  Solving for rhoE, Initial residual = 0, Final residual = 0, No Iterations 0
diagonal:  Solving for rho, Initial residual = 0, Final residual = 0, No Iterations 0
diagonal:  Solving for rhoUx, Initial residual = 0, Final residual = 0, No Iterations 0
diagonal:  Solving for rhoUy, Initial residual = 0, Final residual = 0, No Iterations 0
diagonal:  Solving for rhoE, Initial residual = 0, Final residual = 0, No Iterations 0
diagonal:  Solving for rho, Initial residual = 0, Final residual = 0, No Iterations 0
diagonal:  Solving for rhoUx, Initial residual = 0, Final residual = 0, No Iterations 0
diagonal:  Solving for rhoUy, Initial residual = 0, Final residual = 0, No Iterations 0
diagonal:  Solving for rhoE, Initial residual = 0, Final residual = 0, No Iterations 0
    ExecutionTime = 0.11 s

Courant Number mean: 0.0648103 max: 0.759375 velocity magnitude: 130.927

 Time = 0.00014
diagonal:  Solving for rho, Initial residual = 0, Final residual = 0, No Iterations 0
diagonal:  Solving for rhoUx, Initial residual = 0, Final residual = 0, No Iterations 0
diagonal:  Solving for rhoUy, Initial residual = 0, Final residual = 0, No Iterations 0
diagonal:  Solving for rhoE, Initial residual = 0, Final residual = 0, No Iterations 0
diagonal:  Solving for rho, Initial residual = 0, Final residual = 0, No Iterations 0
diagonal:  Solving for rhoUx, Initial residual = 0, Final residual = 0, No Iterations 0
diagonal:  Solving for rhoUy, Initial residual = 0, Final residual = 0, No Iterations 0
diagonal:  Solving for rhoE, Initial residual = 0, Final residual = 0, No Iterations 0
diagonal:  Solving for rho, Initial residual = 0, Final residual = 0, No Iterations 0
diagonal:  Solving for rhoUx, Initial residual = 0, Final residual = 0, No Iterations 0
diagonal:  Solving for rhoUy, Initial residual = 0, Final residual = 0, No Iterations 0
diagonal:  Solving for rhoE, Initial residual = 0, Final residual = 0, No Iterations 0
diagonal:  Solving for rho, Initial residual = 0, Final residual = 0, No Iterations 0
diagonal:  Solving for rhoUx, Initial residual = 0, Final residual = 0, No Iterations 0
diagonal:  Solving for rhoUy, Initial residual = 0, Final residual = 0, No Iterations 0
diagonal:  Solving for rhoE, Initial residual = 0, Final residual = 0, No Iterations 0
    ExecutionTime = 0.12 s

Courant Number mean: 0.0698855 max: 0.759106 velocity magnitude: 130.88

 Time = 0.00015
diagonal:  Solving for rho, Initial residual = 0, Final residual = 0, No Iterations 0
diagonal:  Solving for rhoUx, Initial residual = 0, Final residual = 0, No Iterations 0
diagonal:  Solving for rhoUy, Initial residual = 0, Final residual = 0, No Iterations 0
diagonal:  Solving for rhoE, Initial residual = 0, Final residual = 0, No Iterations 0
diagonal:  Solving for rho, Initial residual = 0, Final residual = 0, No Iterations 0
diagonal:  Solving for rhoUx, Initial residual = 0, Final residual = 0, No Iterations 0
diagonal:  Solving for rhoUy, Initial residual = 0, Final residual = 0, No Iterations 0
diagonal:  Solving for rhoE, Initial residual = 0, Final residual = 0, No Iterations 0
diagonal:  Solving for rho, Initial residual = 0, Final residual = 0, No Iterations 0
diagonal:  Solving for rhoUx, Initial residual = 0, Final residual = 0, No Iterations 0
diagonal:  Solving for rhoUy, Initial residual = 0, Final residual = 0, No Iterations 0
diagonal:  Solving for rhoE, Initial residual = 0, Final residual = 0, No Iterations 0
diagonal:  Solving for rho, Initial residual = 0, Final residual = 0, No Iterations 0
diagonal:  Solving for rhoUx, Initial residual = 0, Final residual = 0, No Iterations 0
diagonal:  Solving for rhoUy, Initial residual = 0, Final residual = 0, No Iterations 0
diagonal:  Solving for rhoE, Initial residual = 0, Final residual = 0, No Iterations 0
    ExecutionTime = 0.12 s

Courant Number mean: 0.0749605 max: 0.758925 velocity magnitude: 130.849

 Time = 0.00016
diagonal:  Solving for rho, Initial residual = 0, Final residual = 0, No Iterations 0
diagonal:  Solving for rhoUx, Initial residual = 0, Final residual = 0, No Iterations 0
diagonal:  Solving for rhoUy, Initial residual = 0, Final residual = 0, No Iterations 0
diagonal:  Solving for rhoE, Initial residual = 0, Final residual = 0, No Iterations 0
diagonal:  Solving for rho, Initial residual = 0, Final residual = 0, No Iterations 0
diagonal:  Solving for rhoUx, Initial residual = 0, Final residual = 0, No Iterations 0
diagonal:  Solving for rhoUy, Initial residual = 0, Final residual = 0, No Iterations 0
diagonal:  Solving for rhoE, Initial residual = 0, Final residual = 0, No Iterations 0
diagonal:  Solving for rho, Initial residual = 0, Final residual = 0, No Iterations 0
diagonal:  Solving for rhoUx, Initial residual = 0, Final residual = 0, No Iterations 0
diagonal:  Solving for rhoUy, Initial residual = 0, Final residual = 0, No Iterations 0
diagonal:  Solving for rhoE, Initial residual = 0, Final residual = 0, No Iterations 0
diagonal:  Solving for rho, Initial residual = 0, Final residual = 0, No Iterations 0
diagonal:  Solving for rhoUx, Initial residual = 0, Final residual = 0, No Iterations 0
diagonal:  Solving for rhoUy, Initial residual = 0, Final residual = 0, No Iterations 0
diagonal:  Solving for rhoE, Initial residual = 0, Final residual = 0, No Iterations 0
    ExecutionTime = 0.13 s

Courant Number mean: 0.0800353 max: 0.758729 velocity magnitude: 130.815

 Time = 0.00017
diagonal:  Solving for rho, Initial residual = 0, Final residual = 0, No Iterations 0
diagonal:  Solving for rhoUx, Initial residual = 0, Final residual = 0, No Iterations 0
diagonal:  Solving for rhoUy, Initial residual = 0, Final residual = 0, No Iterations 0
diagonal:  Solving for rhoE, Initial residual = 0, Final residual = 0, No Iterations 0
diagonal:  Solving for rho, Initial residual = 0, Final residual = 0, No Iterations 0
diagonal:  Solving for rhoUx, Initial residual = 0, Final residual = 0, No Iterations 0
diagonal:  Solving for rhoUy, Initial residual = 0, Final residual = 0, No Iterations 0
diagonal:  Solving for rhoE, Initial residual = 0, Final residual = 0, No Iterations 0
diagonal:  Solving for rho, Initial residual = 0, Final residual = 0, No Iterations 0
diagonal:  Solving for rhoUx, Initial residual = 0, Final residual = 0, No Iterations 0
diagonal:  Solving for rhoUy, Initial residual = 0, Final residual = 0, No Iterations 0
diagonal:  Solving for rhoE, Initial residual = 0, Final residual = 0, No Iterations 0
diagonal:  Solving for rho, Initial residual = 0, Final residual = 0, No Iterations 0
diagonal:  Solving for rhoUx, Initial residual = 0, Final residual = 0, No Iterations 0
diagonal:  Solving for rhoUy, Initial residual = 0, Final residual = 0, No Iterations 0
diagonal:  Solving for rhoE, Initial residual = 0, Final residual = 0, No Iterations 0
    ExecutionTime = 0.15 s

Courant Number mean: 0.0851102 max: 0.758526 velocity magnitude: 130.78

 Time = 0.00018
diagonal:  Solving for rho, Initial residual = 0, Final residual = 0, No Iterations 0
diagonal:  Solving for rhoUx, Initial residual = 0, Final residual = 0, No Iterations 0
diagonal:  Solving for rhoUy, Initial residual = 0, Final residual = 0, No Iterations 0
diagonal:  Solving for rhoE, Initial residual = 0, Final residual = 0, No Iterations 0
diagonal:  Solving for rho, Initial residual = 0, Final residual = 0, No Iterations 0
diagonal:  Solving for rhoUx, Initial residual = 0, Final residual = 0, No Iterations 0
diagonal:  Solving for rhoUy, Initial residual = 0, Final residual = 0, No Iterations 0
diagonal:  Solving for rhoE, Initial residual = 0, Final residual = 0, No Iterations 0
diagonal:  Solving for rho, Initial residual = 0, Final residual = 0, No Iterations 0
diagonal:  Solving for rhoUx, Initial residual = 0, Final residual = 0, No Iterations 0
diagonal:  Solving for rhoUy, Initial residual = 0, Final residual = 0, No Iterations 0
diagonal:  Solving for rhoE, Initial residual = 0, Final residual = 0, No Iterations 0
diagonal:  Solving for rho, Initial residual = 0, Final residual = 0, No Iterations 0
diagonal:  Solving for rhoUx, Initial residual = 0, Final residual = 0, No Iterations 0
diagonal:  Solving for rhoUy, Initial residual = 0, Final residual = 0, No Iterations 0
diagonal:  Solving for rhoE, Initial residual = 0, Final residual = 0, No Iterations 0
    ExecutionTime = 0.15 s

Courant Number mean: 0.0901852 max: 0.758374 velocity magnitude: 130.754

 Time = 0.00019
diagonal:  Solving for rho, Initial residual = 0, Final residual = 0, No Iterations 0
diagonal:  Solving for rhoUx, Initial residual = 0, Final residual = 0, No Iterations 0
diagonal:  Solving for rhoUy, Initial residual = 0, Final residual = 0, No Iterations 0
diagonal:  Solving for rhoE, Initial residual = 0, Final residual = 0, No Iterations 0
diagonal:  Solving for rho, Initial residual = 0, Final residual = 0, No Iterations 0
diagonal:  Solving for rhoUx, Initial residual = 0, Final residual = 0, No Iterations 0
diagonal:  Solving for rhoUy, Initial residual = 0, Final residual = 0, No Iterations 0
diagonal:  Solving for rhoE, Initial residual = 0, Final residual = 0, No Iterations 0
diagonal:  Solving for rho, Initial residual = 0, Final residual = 0, No Iterations 0
diagonal:  Solving for rhoUx, Initial residual = 0, Final residual = 0, No Iterations 0
diagonal:  Solving for rhoUy, Initial residual = 0, Final residual = 0, No Iterations 0
diagonal:  Solving for rhoE, Initial residual = 0, Final residual = 0, No Iterations 0
diagonal:  Solving for rho, Initial residual = 0, Final residual = 0, No Iterations 0
diagonal:  Solving for rhoUx, Initial residual = 0, Final residual = 0, No Iterations 0
diagonal:  Solving for rhoUy, Initial residual = 0, Final residual = 0, No Iterations 0
diagonal:  Solving for rhoE, Initial residual = 0, Final residual = 0, No Iterations 0
    ExecutionTime = 0.16 s

Courant Number mean: 0.0952602 max: 0.758252 velocity magnitude: 130.733

 Time = 0.0002
diagonal:  Solving for rho, Initial residual = 0, Final residual = 0, No Iterations 0
diagonal:  Solving for rhoUx, Initial residual = 0, Final residual = 0, No Iterations 0
diagonal:  Solving for rhoUy, Initial residual = 0, Final residual = 0, No Iterations 0
diagonal:  Solving for rhoE, Initial residual = 0, Final residual = 0, No Iterations 0
diagonal:  Solving for rho, Initial residual = 0, Final residual = 0, No Iterations 0
diagonal:  Solving for rhoUx, Initial residual = 0, Final residual = 0, No Iterations 0
diagonal:  Solving for rhoUy, Initial residual = 0, Final residual = 0, No Iterations 0
diagonal:  Solving for rhoE, Initial residual = 0, Final residual = 0, No Iterations 0
diagonal:  Solving for rho, Initial residual = 0, Final residual = 0, No Iterations 0
diagonal:  Solving for rhoUx, Initial residual = 0, Final residual = 0, No Iterations 0
diagonal:  Solving for rhoUy, Initial residual = 0, Final residual = 0, No Iterations 0
diagonal:  Solving for rhoE, Initial residual = 0, Final residual = 0, No Iterations 0
diagonal:  Solving for rho, Initial residual = 0, Final residual = 0, No Iterations 0
diagonal:  Solving for rhoUx, Initial residual = 0, Final residual = 0, No Iterations 0
diagonal:  Solving for rhoUy, Initial residual = 0, Final residual = 0, No Iterations 0
diagonal:  Solving for rhoE, Initial residual = 0, Final residual = 0, No Iterations 0
    ExecutionTime = 0.17 s

Courant Number mean: 0.100336 max: 0.758119 velocity magnitude: 130.71

 Time = 0.00021
diagonal:  Solving for rho, Initial residual = 0, Final residual = 0, No Iterations 0
diagonal:  Solving for rhoUx, Initial residual = 0, Final residual = 0, No Iterations 0
diagonal:  Solving for rhoUy, Initial residual = 0, Final residual = 0, No Iterations 0
diagonal:  Solving for rhoE, Initial residual = 0, Final residual = 0, No Iterations 0
diagonal:  Solving for rho, Initial residual = 0, Final residual = 0, No Iterations 0
diagonal:  Solving for rhoUx, Initial residual = 0, Final residual = 0, No Iterations 0
diagonal:  Solving for rhoUy, Initial residual = 0, Final residual = 0, No Iterations 0
diagonal:  Solving for rhoE, Initial residual = 0, Final residual = 0, No Iterations 0
diagonal:  Solving for rho, Initial residual = 0, Final residual = 0, No Iterations 0
diagonal:  Solving for rhoUx, Initial residual = 0, Final residual = 0, No Iterations 0
diagonal:  Solving for rhoUy, Initial residual = 0, Final residual = 0, No Iterations 0
diagonal:  Solving for rhoE, Initial residual = 0, Final residual = 0, No Iterations 0
diagonal:  Solving for rho, Initial residual = 0, Final residual = 0, No Iterations 0
diagonal:  Solving for rhoUx, Initial residual = 0, Final residual = 0, No Iterations 0
diagonal:  Solving for rhoUy, Initial residual = 0, Final residual = 0, No Iterations 0
diagonal:  Solving for rhoE, Initial residual = 0, Final residual = 0, No Iterations 0
    ExecutionTime = 0.17 s

Courant Number mean: 0.105413 max: 0.760708 velocity magnitude: 131.157

 Time = 0.00022
diagonal:  Solving for rho, Initial residual = 0, Final residual = 0, No Iterations 0
diagonal:  Solving for rhoUx, Initial residual = 0, Final residual = 0, No Iterations 0
diagonal:  Solving for rhoUy, Initial residual = 0, Final residual = 0, No Iterations 0
diagonal:  Solving for rhoE, Initial residual = 0, Final residual = 0, No Iterations 0
diagonal:  Solving for rho, Initial residual = 0, Final residual = 0, No Iterations 0
diagonal:  Solving for rhoUx, Initial residual = 0, Final residual = 0, No Iterations 0
diagonal:  Solving for rhoUy, Initial residual = 0, Final residual = 0, No Iterations 0
diagonal:  Solving for rhoE, Initial residual = 0, Final residual = 0, No Iterations 0
diagonal:  Solving for rho, Initial residual = 0, Final residual = 0, No Iterations 0
diagonal:  Solving for rhoUx, Initial residual = 0, Final residual = 0, No Iterations 0
diagonal:  Solving for rhoUy, Initial residual = 0, Final residual = 0, No Iterations 0
diagonal:  Solving for rhoE, Initial residual = 0, Final residual = 0, No Iterations 0
diagonal:  Solving for rho, Initial residual = 0, Final residual = 0, No Iterations 0
diagonal:  Solving for rhoUx, Initial residual = 0, Final residual = 0, No Iterations 0
diagonal:  Solving for rhoUy, Initial residual = 0, Final residual = 0, No Iterations 0
diagonal:  Solving for rhoE, Initial residual = 0, Final residual = 0, No Iterations 0
    ExecutionTime = 0.18 s

Courant Number mean: 0.11049 max: 0.798116 velocity magnitude: 137.606

 Time = 0.00023
diagonal:  Solving for rho, Initial residual = 0, Final residual = 0, No Iterations 0
diagonal:  Solving for rhoUx, Initial residual = 0, Final residual = 0, No Iterations 0
diagonal:  Solving for rhoUy, Initial residual = 0, Final residual = 0, No Iterations 0
diagonal:  Solving for rhoE, Initial residual = 0, Final residual = 0, No Iterations 0
diagonal:  Solving for rho, Initial residual = 0, Final residual = 0, No Iterations 0
diagonal:  Solving for rhoUx, Initial residual = 0, Final residual = 0, No Iterations 0
diagonal:  Solving for rhoUy, Initial residual = 0, Final residual = 0, No Iterations 0
diagonal:  Solving for rhoE, Initial residual = 0, Final residual = 0, No Iterations 0
diagonal:  Solving for rho, Initial residual = 0, Final residual = 0, No Iterations 0
diagonal:  Solving for rhoUx, Initial residual = 0, Final residual = 0, No Iterations 0
diagonal:  Solving for rhoUy, Initial residual = 0, Final residual = 0, No Iterations 0
diagonal:  Solving for rhoE, Initial residual = 0, Final residual = 0, No Iterations 0
diagonal:  Solving for rho, Initial residual = 0, Final residual = 0, No Iterations 0
diagonal:  Solving for rhoUx, Initial residual = 0, Final residual = 0, No Iterations 0
diagonal:  Solving for rhoUy, Initial residual = 0, Final residual = 0, No Iterations 0
diagonal:  Solving for rhoE, Initial residual = 0, Final residual = 0, No Iterations 0
    ExecutionTime = 0.19 s

Courant Number mean: 0.115571 max: 0.830907 velocity magnitude: 143.26

 Time = 0.00024
diagonal:  Solving for rho, Initial residual = 0, Final residual = 0, No Iterations 0
diagonal:  Solving for rhoUx, Initial residual = 0, Final residual = 0, No Iterations 0
diagonal:  Solving for rhoUy, Initial residual = 0, Final residual = 0, No Iterations 0
diagonal:  Solving for rhoE, Initial residual = 0, Final residual = 0, No Iterations 0
diagonal:  Solving for rho, Initial residual = 0, Final residual = 0, No Iterations 0
diagonal:  Solving for rhoUx, Initial residual = 0, Final residual = 0, No Iterations 0
diagonal:  Solving for rhoUy, Initial residual = 0, Final residual = 0, No Iterations 0
diagonal:  Solving for rhoE, Initial residual = 0, Final residual = 0, No Iterations 0
diagonal:  Solving for rho, Initial residual = 0, Final residual = 0, No Iterations 0
diagonal:  Solving for rhoUx, Initial residual = 0, Final residual = 0, No Iterations 0
diagonal:  Solving for rhoUy, Initial residual = 0, Final residual = 0, No Iterations 0
diagonal:  Solving for rhoE, Initial residual = 0, Final residual = 0, No Iterations 0
diagonal:  Solving for rho, Initial residual = 0, Final residual = 0, No Iterations 0
diagonal:  Solving for rhoUx, Initial residual = 0, Final residual = 0, No Iterations 0
diagonal:  Solving for rhoUy, Initial residual = 0, Final residual = 0, No Iterations 0
diagonal:  Solving for rhoE, Initial residual = 0, Final residual = 0, No Iterations 0
    ExecutionTime = 0.19 s

Courant Number mean: 0.120659 max: 0.818332 velocity magnitude: 141.092

 Time = 0.00025
diagonal:  Solving for rho, Initial residual = 0, Final residual = 0, No Iterations 0
diagonal:  Solving for rhoUx, Initial residual = 0, Final residual = 0, No Iterations 0
diagonal:  Solving for rhoUy, Initial residual = 0, Final residual = 0, No Iterations 0
diagonal:  Solving for rhoE, Initial residual = 0, Final residual = 0, No Iterations 0
diagonal:  Solving for rho, Initial residual = 0, Final residual = 0, No Iterations 0
diagonal:  Solving for rhoUx, Initial residual = 0, Final residual = 0, No Iterations 0
diagonal:  Solving for rhoUy, Initial residual = 0, Final residual = 0, No Iterations 0
diagonal:  Solving for rhoE, Initial residual = 0, Final residual = 0, No Iterations 0
diagonal:  Solving for rho, Initial residual = 0, Final residual = 0, No Iterations 0
diagonal:  Solving for rhoUx, Initial residual = 0, Final residual = 0, No Iterations 0
diagonal:  Solving for rhoUy, Initial residual = 0, Final residual = 0, No Iterations 0
diagonal:  Solving for rhoE, Initial residual = 0, Final residual = 0, No Iterations 0
diagonal:  Solving for rho, Initial residual = 0, Final residual = 0, No Iterations 0
diagonal:  Solving for rhoUx, Initial residual = 0, Final residual = 0, No Iterations 0
diagonal:  Solving for rhoUy, Initial residual = 0, Final residual = 0, No Iterations 0
diagonal:  Solving for rhoE, Initial residual = 0, Final residual = 0, No Iterations 0
    ExecutionTime = 0.21 s

Courant Number mean: 0.125742 max: 0.868478 velocity magnitude: 149.738

 Time = 0.00026
diagonal:  Solving for rho, Initial residual = 0, Final residual = 0, No Iterations 0
diagonal:  Solving for rhoUx, Initial residual = 0, Final residual = 0, No Iterations 0
diagonal:  Solving for rhoUy, Initial residual = 0, Final residual = 0, No Iterations 0
diagonal:  Solving for rhoE, Initial residual = 0, Final residual = 0, No Iterations 0
diagonal:  Solving for rho, Initial residual = 0, Final residual = 0, No Iterations 0
diagonal:  Solving for rhoUx, Initial residual = 0, Final residual = 0, No Iterations 0
diagonal:  Solving for rhoUy, Initial residual = 0, Final residual = 0, No Iterations 0
diagonal:  Solving for rhoE, Initial residual = 0, Final residual = 0, No Iterations 0
diagonal:  Solving for rho, Initial residual = 0, Final residual = 0, No Iterations 0
diagonal:  Solving for rhoUx, Initial residual = 0, Final residual = 0, No Iterations 0
diagonal:  Solving for rhoUy, Initial residual = 0, Final residual = 0, No Iterations 0
diagonal:  Solving for rhoE, Initial residual = 0, Final residual = 0, No Iterations 0
diagonal:  Solving for rho, Initial residual = 0, Final residual = 0, No Iterations 0
diagonal:  Solving for rhoUx, Initial residual = 0, Final residual = 0, No Iterations 0
diagonal:  Solving for rhoUy, Initial residual = 0, Final residual = 0, No Iterations 0
diagonal:  Solving for rhoE, Initial residual = 0, Final residual = 0, No Iterations 0
    ExecutionTime = 0.22 s

Courant Number mean: 0.130829 max: 0.962113 velocity magnitude: 165.881

 Time = 0.00027
diagonal:  Solving for rho, Initial residual = 0, Final residual = 0, No Iterations 0
diagonal:  Solving for rhoUx, Initial residual = 0, Final residual = 0, No Iterations 0
diagonal:  Solving for rhoUy, Initial residual = 0, Final residual = 0, No Iterations 0
diagonal:  Solving for rhoE, Initial residual = 0, Final residual = 0, No Iterations 0
diagonal:  Solving for rho, Initial residual = 0, Final residual = 0, No Iterations 0
diagonal:  Solving for rhoUx, Initial residual = 0, Final residual = 0, No Iterations 0
diagonal:  Solving for rhoUy, Initial residual = 0, Final residual = 0, No Iterations 0
diagonal:  Solving for rhoE, Initial residual = 0, Final residual = 0, No Iterations 0
diagonal:  Solving for rho, Initial residual = 0, Final residual = 0, No Iterations 0
diagonal:  Solving for rhoUx, Initial residual = 0, Final residual = 0, No Iterations 0
diagonal:  Solving for rhoUy, Initial residual = 0, Final residual = 0, No Iterations 0
diagonal:  Solving for rhoE, Initial residual = 0, Final residual = 0, No Iterations 0
diagonal:  Solving for rho, Initial residual = 0, Final residual = 0, No Iterations 0
diagonal:  Solving for rhoUx, Initial residual = 0, Final residual = 0, No Iterations 0
diagonal:  Solving for rhoUy, Initial residual = 0, Final residual = 0, No Iterations 0
diagonal:  Solving for rhoE, Initial residual = 0, Final residual = 0, No Iterations 0
    ExecutionTime = 0.22 s

Courant Number mean: 0.135948 max: 1.01184 velocity magnitude: 174.456

 Time = 0.00028
diagonal:  Solving for rho, Initial residual = 0, Final residual = 0, No Iterations 0
diagonal:  Solving for rhoUx, Initial residual = 0, Final residual = 0, No Iterations 0
diagonal:  Solving for rhoUy, Initial residual = 0, Final residual = 0, No Iterations 0
diagonal:  Solving for rhoE, Initial residual = 0, Final residual = 0, No Iterations 0
diagonal:  Solving for rho, Initial residual = 0, Final residual = 0, No Iterations 0
diagonal:  Solving for rhoUx, Initial residual = 0, Final residual = 0, No Iterations 0
diagonal:  Solving for rhoUy, Initial residual = 0, Final residual = 0, No Iterations 0
diagonal:  Solving for rhoE, Initial residual = 0, Final residual = 0, No Iterations 0
diagonal:  Solving for rho, Initial residual = 0, Final residual = 0, No Iterations 0
diagonal:  Solving for rhoUx, Initial residual = 0, Final residual = 0, No Iterations 0
diagonal:  Solving for rhoUy, Initial residual = 0, Final residual = 0, No Iterations 0
diagonal:  Solving for rhoE, Initial residual = 0, Final residual = 0, No Iterations 0
diagonal:  Solving for rho, Initial residual = 0, Final residual = 0, No Iterations 0
diagonal:  Solving for rhoUx, Initial residual = 0, Final residual = 0, No Iterations 0
diagonal:  Solving for rhoUy, Initial residual = 0, Final residual = 0, No Iterations 0
diagonal:  Solving for rhoE, Initial residual = 0, Final residual = 0, No Iterations 0
    ExecutionTime = 0.23 s

Courant Number mean: 0.141104 max: 0.976424 velocity magnitude: 168.349

 Time = 0.00029
diagonal:  Solving for rho, Initial residual = 0, Final residual = 0, No Iterations 0
diagonal:  Solving for rhoUx, Initial residual = 0, Final residual = 0, No Iterations 0
diagonal:  Solving for rhoUy, Initial residual = 0, Final residual = 0, No Iterations 0
diagonal:  Solving for rhoE, Initial residual = 0, Final residual = 0, No Iterations 0
diagonal:  Solving for rho, Initial residual = 0, Final residual = 0, No Iterations 0
diagonal:  Solving for rhoUx, Initial residual = 0, Final residual = 0, No Iterations 0
diagonal:  Solving for rhoUy, Initial residual = 0, Final residual = 0, No Iterations 0
diagonal:  Solving for rhoE, Initial residual = 0, Final residual = 0, No Iterations 0
diagonal:  Solving for rho, Initial residual = 0, Final residual = 0, No Iterations 0
diagonal:  Solving for rhoUx, Initial residual = 0, Final residual = 0, No Iterations 0
diagonal:  Solving for rhoUy, Initial residual = 0, Final residual = 0, No Iterations 0
diagonal:  Solving for rhoE, Initial residual = 0, Final residual = 0, No Iterations 0
diagonal:  Solving for rho, Initial residual = 0, Final residual = 0, No Iterations 0
diagonal:  Solving for rhoUx, Initial residual = 0, Final residual = 0, No Iterations 0
diagonal:  Solving for rhoUy, Initial residual = 0, Final residual = 0, No Iterations 0
diagonal:  Solving for rhoE, Initial residual = 0, Final residual = 0, No Iterations 0
bounding h, min: -1.17492e+06 max: 349068 average: 271400
new min: 34628.5
    ExecutionTime = 0.24 s

Courant Number mean: 0.146343 max: 1.17297 velocity magnitude: 202.236

 Time = 0.0003
diagonal:  Solving for rho, Initial residual = 0, Final residual = 0, No Iterations 0
diagonal:  Solving for rhoUx, Initial residual = 0, Final residual = 0, No Iterations 0
diagonal:  Solving for rhoUy, Initial residual = 0, Final residual = 0, No Iterations 0
diagonal:  Solving for rhoE, Initial residual = 0, Final residual = 0, No Iterations 0
diagonal:  Solving for rho, Initial residual = 0, Final residual = 0, No Iterations 0
diagonal:  Solving for rhoUx, Initial residual = 0, Final residual = 0, No Iterations 0
diagonal:  Solving for rhoUy, Initial residual = 0, Final residual = 0, No Iterations 0
diagonal:  Solving for rhoE, Initial residual = 0, Final residual = 0, No Iterations 0
diagonal:  Solving for rho, Initial residual = 0, Final residual = 0, No Iterations 0
diagonal:  Solving for rhoUx, Initial residual = 0, Final residual = 0, No Iterations 0
diagonal:  Solving for rhoUy, Initial residual = 0, Final residual = 0, No Iterations 0
diagonal:  Solving for rhoE, Initial residual = 0, Final residual = 0, No Iterations 0
bounding h, min: -2.25974e+06 max: 356560 average: 268377
new min: 145775
diagonal:  Solving for rho, Initial residual = 0, Final residual = 0, No Iterations 0
diagonal:  Solving for rhoUx, Initial residual = 0, Final residual = 0, No Iterations 0
diagonal:  Solving for rhoUy, Initial residual = 0, Final residual = 0, No Iterations 0
diagonal:  Solving for rhoE, Initial residual = 0, Final residual = 0, No Iterations 0
bounding h, min: -306595 max: 560020 average: 272681
new min: 125954
bounding rho, min: -21.4436 max: 21.0305 average: 2.57873
new min: 0.708125
    ExecutionTime = 0.25 s

Courant Number mean: 0.151276 max: 1.23252 velocity magnitude: 212.504

 Time = 0.00031
diagonal:  Solving for rho, Initial residual = 0, Final residual = 0, No Iterations 0
diagonal:  Solving for rhoUx, Initial residual = 0, Final residual = 0, No Iterations 0
diagonal:  Solving for rhoUy, Initial residual = 0, Final residual = 0, No Iterations 0
diagonal:  Solving for rhoE, Initial residual = 0, Final residual = 0, No Iterations 0
bounding h, min: -950678 max: 882017 average: 271671
new min: 113.397
diagonal:  Solving for rho, Initial residual = 0, Final residual = 0, No Iterations 0
diagonal:  Solving for rhoUx, Initial residual = 0, Final residual = 0, No Iterations 0
diagonal:  Solving for rhoUy, Initial residual = 0, Final residual = 0, No Iterations 0
diagonal:  Solving for rhoE, Initial residual = 0, Final residual = 0, No Iterations 0
bounding h, min: -4.96157e+07 max: 638136 average: 182570
new min: 2726.09
bounding rho, min: -4.46465 max: 32.676 average: 2.64868
new min: 0.744946
diagonal:  Solving for rho, Initial residual = 0, Final residual = 0, No Iterations 0
diagonal:  Solving for rhoUx, Initial residual = 0, Final residual = 0, No Iterations 0
diagonal:  Solving for rhoUy, Initial residual = 0, Final residual = 0, No Iterations 0
diagonal:  Solving for rhoE, Initial residual = 0, Final residual = 0, No Iterations 0
bounding h, min: -1.4135e+07 max: 1.48827e+06 average: 243246
new min: 14477.2
bounding rho, min: -442.72 max: 415.475 average: 2.64868
new min: 1.06111
diagonal:  Solving for rho, Initial residual = 0, Final residual = 0, No Iterations 0
diagonal:  Solving for rhoUx, Initial residual = 0, Final residual = 0, No Iterations 0
diagonal:  Solving for rhoUy, Initial residual = 0, Final residual = 0, No Iterations 0
diagonal:  Solving for rhoE, Initial residual = 0, Final residual = 0, No Iterations 0
bounding h, min: -2.26262e+08 max: 681690 average: -194347
new min: 566.483
bounding rho, min: -14423.9 max: 12181.5 average: 2.64868
new min: 1.12215
new max: 6138.13
bounding p, min: 731.571 max: 2.17487e+08 average: 967268
new max: 1e+07
    ExecutionTime = 0.25 s

Courant Number mean: 0.161492 max: 2.79427 velocity magnitude: 481.77

 Time = 0.00032
diagonal:  Solving for rho, Initial residual = 0, Final residual = 0, No Iterations 0
diagonal:  Solving for rhoUx, Initial residual = 0, Final residual = 0, No Iterations 0
diagonal:  Solving for rhoUy, Initial residual = 0, Final residual = 0, No Iterations 0
diagonal:  Solving for rhoE, Initial residual = 0, Final residual = 0, No Iterations 0
bounding h, min: -1.38421e+08 max: 2.48668e+07 average: -57840.3
new min: 1.007
new max: 9.09711e+06
bounding rho, min: -806.887 max: 4964.67 average: 23.8593
new min: 1.28937
bounding p, min: 96.1209 max: 8.66832e+09 average: 3.86979e+07
new max: 1e+07
diagonal:  Solving for rho, Initial residual = 0, Final residual = 0, No Iterations 0
diagonal:  Solving for rhoUx, Initial residual = 0, Final residual = 0, No Iterations 0
diagonal:  Solving for rhoUy, Initial residual = 0, Final residual = 0, No Iterations 0
diagonal:  Solving for rhoE, Initial residual = 0, Final residual = 0, No Iterations 0
bounding h, min: -1.88303e+08 max: 5.75148e+06 average: -420456
new min: 1.007

    From function specieThermo<thermo>::T(scalar f, scalar T0, scalar (specieThermo<thermo>::*F)(const scalar) const, scalar (specieThermo<thermo>::*dFdT)(const scalar) const) const
    in file /opt/foam/foam-extend-4.0/src/thermophysicalModels/specie/lnInclude/specieThermoI.H at line 72
    Maximum number of iterations exceeded.  T0 = 7691.37 F = 5.71107e+06 dFdT = 1007

    From function specieThermo<thermo>::T(scalar f, scalar T0, scalar (specieThermo<thermo>::*F)(const scalar) const, scalar (specieThermo<thermo>::*dFdT)(const scalar) const) const
    in file /opt/foam/foam-extend-4.0/src/thermophysicalModels/specie/lnInclude/specieThermoI.H at line 72
    Maximum number of iterations exceeded.  T0 = 9033.87 F = 7.06297e+06 dFdT = 1007

    From function specieThermo<thermo>::T(scalar f, scalar T0, scalar (specieThermo<thermo>::*F)(const scalar) const, scalar (specieThermo<thermo>::*dFdT)(const scalar) const) const
    in file /opt/foam/foam-extend-4.0/src/thermophysicalModels/specie/lnInclude/specieThermoI.H at line 72
    Maximum number of iterations exceeded.  T0 = 6068.84 F = 4.07718e+06 dFdT = 1007

    From function specieThermo<thermo>::T(scalar f, scalar T0, scalar (specieThermo<thermo>::*F)(const scalar) const, scalar (specieThermo<thermo>::*dFdT)(const scalar) const) const
    in file /opt/foam/foam-extend-4.0/src/thermophysicalModels/specie/lnInclude/specieThermoI.H at line 72
    Maximum number of iterations exceeded.  T0 = 7691.37 F = 5.71107e+06 dFdT = 1007

    From function specieThermo<thermo>::T(scalar f, scalar T0, scalar (specieThermo<thermo>::*F)(const scalar) const, scalar (specieThermo<thermo>::*dFdT)(const scalar) const) const
    in file /opt/foam/foam-extend-4.0/src/thermophysicalModels/specie/lnInclude/specieThermoI.H at line 72
    Maximum number of iterations exceeded.  T0 = 9033.87 F = 7.06297e+06 dFdT = 1007

    From function specieThermo<thermo>::T(scalar f, scalar T0, scalar (specieThermo<thermo>::*F)(const scalar) const, scalar (specieThermo<thermo>::*dFdT)(const scalar) const) const
    in file /opt/foam/foam-extend-4.0/src/thermophysicalModels/specie/lnInclude/specieThermoI.H at line 72
    Maximum number of iterations exceeded.  T0 = 6068.84 F = 4.07718e+06 dFdT = 1007

    From function specieThermo<thermo>::T(scalar f, scalar T0, scalar (specieThermo<thermo>::*F)(const scalar) const, scalar (specieThermo<thermo>::*dFdT)(const scalar) const) const
    in file /opt/foam/foam-extend-4.0/src/thermophysicalModels/specie/lnInclude/specieThermoI.H at line 72
    Maximum number of iterations exceeded.  T0 = 7691.37 F = 5.71107e+06 dFdT = 1007

    From function specieThermo<thermo>::T(scalar f, scalar T0, scalar (specieThermo<thermo>::*F)(const scalar) const, scalar (specieThermo<thermo>::*dFdT)(const scalar) const) const
    in file /opt/foam/foam-extend-4.0/src/thermophysicalModels/specie/lnInclude/specieThermoI.H at line 72
    Maximum number of iterations exceeded.  T0 = 9033.87 F = 7.06297e+06 dFdT = 1007

    From function specieThermo<thermo>::T(scalar f, scalar T0, scalar (specieThermo<thermo>::*F)(const scalar) const, scalar (specieThermo<thermo>::*dFdT)(const scalar) const) const
    in file /opt/foam/foam-extend-4.0/src/thermophysicalModels/specie/lnInclude/specieThermoI.H at line 72
    Maximum number of iterations exceeded.  T0 = 6068.84 F = 4.07718e+06 dFdT = 1007
bounding rho, min: -3626.3 max: 6225.54 average: 23.8593
new min: 1.28937
bounding p, min: 22.3176 max: 2.26372e+09 average: 7.70979e+06
new max: 1e+07
diagonal:  Solving for rho, Initial residual = 0, Final residual = 0, No Iterations 0
diagonal:  Solving for rhoUx, Initial residual = 0, Final residual = 0, No Iterations 0
diagonal:  Solving for rhoUy, Initial residual = 0, Final residual = 0, No Iterations 0
diagonal:  Solving for rhoE, Initial residual = 0, Final residual = 0, No Iterations 0
bounding h, min: -2.35512e+09 max: 2.79004e+07 average: -4.82225e+06
new min: 1.007
new max: 8.80966e+06

    From function specieThermo<thermo>::T(scalar f, scalar T0, scalar (specieThermo<thermo>::*F)(const scalar) const, scalar (specieThermo<thermo>::*dFdT)(const scalar) const) const
    in file /opt/foam/foam-extend-4.0/src/thermophysicalModels/specie/lnInclude/specieThermoI.H at line 72
    Maximum number of iterations exceeded.  T0 = 5711.49 F = 3.71734e+06 dFdT = 1007

    From function specieThermo<thermo>::T(scalar f, scalar T0, scalar (specieThermo<thermo>::*F)(const scalar) const, scalar (specieThermo<thermo>::*dFdT)(const scalar) const) const
    in file /opt/foam/foam-extend-4.0/src/thermophysicalModels/specie/lnInclude/specieThermoI.H at line 72
    Maximum number of iterations exceeded.  T0 = 5711.49 F = 3.71734e+06 dFdT = 1007

    From function specieThermo<thermo>::T(scalar f, scalar T0, scalar (specieThermo<thermo>::*F)(const scalar) const, scalar (specieThermo<thermo>::*dFdT)(const scalar) const) const
    in file /opt/foam/foam-extend-4.0/src/thermophysicalModels/specie/lnInclude/specieThermoI.H at line 72
    Maximum number of iterations exceeded.  T0 = 5711.49 F = 3.71734e+06 dFdT = 1007
bounding rho, min: -146695 max: 66369.6 average: 23.8593
new min: 1.28937
new max: 10000
bounding p, min: 6.12763 max: 1.80881e+10 average: 8.8297e+07
new max: 1e+07
diagonal:  Solving for rho, Initial residual = 0, Final residual = 0, No Iterations 0
diagonal:  Solving for rhoUx, Initial residual = 0, Final residual = 0, No Iterations 0
diagonal:  Solving for rhoUy, Initial residual = 0, Final residual = 0, No Iterations 0
diagonal:  Solving for rhoE, Initial residual = 0, Final residual = 0, No Iterations 0
bounding h, min: -4.41604e+11 max: 6.63302e+07 average: -7.74329e+08
new min: 1.007
new max: 1.007e+07

    From function specieThermo<thermo>::T(scalar f, scalar T0, scalar (specieThermo<thermo>::*F)(const scalar) const, scalar (specieThermo<thermo>::*dFdT)(const scalar) const) const
    in file /opt/foam/foam-extend-4.0/src/thermophysicalModels/specie/lnInclude/specieThermoI.H at line 72
    Maximum number of iterations exceeded.  T0 = 2150.04 F = 130947 dFdT = 1007

    From function specieThermo<thermo>::T(scalar f, scalar T0, scalar (specieThermo<thermo>::*F)(const scalar) const, scalar (specieThermo<thermo>::*dFdT)(const scalar) const) const
    in file /opt/foam/foam-extend-4.0/src/thermophysicalModels/specie/lnInclude/specieThermoI.H at line 72
    Maximum number of iterations exceeded.  T0 = 8748.42 F = 6.77552e+06 dFdT = 1007

    From function specieThermo<thermo>::T(scalar f, scalar T0, scalar (specieThermo<thermo>::*F)(const scalar) const, scalar (specieThermo<thermo>::*dFdT)(const scalar) const) const
    in file /opt/foam/foam-extend-4.0/src/thermophysicalModels/specie/lnInclude/specieThermoI.H at line 72
    Maximum number of iterations exceeded.  T0 = 2226.03 F = 207468 dFdT = 1007

    From function specieThermo<thermo>::T(scalar f, scalar T0, scalar (specieThermo<thermo>::*F)(const scalar) const, scalar (specieThermo<thermo>::*dFdT)(const scalar) const) const
    in file /opt/foam/foam-extend-4.0/src/thermophysicalModels/specie/lnInclude/specieThermoI.H at line 72
    Maximum number of iterations exceeded.  T0 = 2150.04 F = 130947 dFdT = 1007

    From function specieThermo<thermo>::T(scalar f, scalar T0, scalar (specieThermo<thermo>::*F)(const scalar) const, scalar (specieThermo<thermo>::*dFdT)(const scalar) const) const
    in file /opt/foam/foam-extend-4.0/src/thermophysicalModels/specie/lnInclude/specieThermoI.H at line 72
    Maximum number of iterations exceeded.  T0 = 8748.42 F = 6.77552e+06 dFdT = 1007

    From function specieThermo<thermo>::T(scalar f, scalar T0, scalar (specieThermo<thermo>::*F)(const scalar) const, scalar (specieThermo<thermo>::*dFdT)(const scalar) const) const
    in file /opt/foam/foam-extend-4.0/src/thermophysicalModels/specie/lnInclude/specieThermoI.H at line 72
    Maximum number of iterations exceeded.  T0 = 2226.03 F = 207468 dFdT = 1007

    From function specieThermo<thermo>::T(scalar f, scalar T0, scalar (specieThermo<thermo>::*F)(const scalar) const, scalar (specieThermo<thermo>::*dFdT)(const scalar) const) const
    in file /opt/foam/foam-extend-4.0/src/thermophysicalModels/specie/lnInclude/specieThermoI.H at line 72
    Maximum number of iterations exceeded.  T0 = 2150.04 F = 130947 dFdT = 1007

    From function specieThermo<thermo>::T(scalar f, scalar T0, scalar (specieThermo<thermo>::*F)(const scalar) const, scalar (specieThermo<thermo>::*dFdT)(const scalar) const) const
    in file /opt/foam/foam-extend-4.0/src/thermophysicalModels/specie/lnInclude/specieThermoI.H at line 72
    Maximum number of iterations exceeded.  T0 = 8748.42 F = 6.77552e+06 dFdT = 1007

    From function specieThermo<thermo>::T(scalar f, scalar T0, scalar (specieThermo<thermo>::*F)(const scalar) const, scalar (specieThermo<thermo>::*dFdT)(const scalar) const) const
    in file /opt/foam/foam-extend-4.0/src/thermophysicalModels/specie/lnInclude/specieThermoI.H at line 72
    Maximum number of iterations exceeded.  T0 = 2226.03 F = 207468 dFdT = 1007
bounding rho, min: -763217 max: 647589 average: 23.8592
new min: 1.28937
new max: 10000
bounding p, min: 38.4407 max: 1.8452e+10 average: 6.00092e+07
new max: 1e+07
    ExecutionTime = 0.26 s

Courant Number mean: 0.482324 max: 72.0053 velocity magnitude: 12414.7

 Time = 0.00033
diagonal:  Solving for rho, Initial residual = 0, Final residual = 0, No Iterations 0
diagonal:  Solving for rhoUx, Initial residual = 0, Final residual = 0, No Iterations 0
diagonal:  Solving for rhoUy, Initial residual = 0, Final residual = 0, No Iterations 0
diagonal:  Solving for rhoE, Initial residual = 0, Final residual = 0, No Iterations 0
bounding h, min: -8.79206e+10 max: 7.95642e+10 average: -3.42572e+08
new min: 1.007
new max: 1.007e+07
bounding rho, min: -390676 max: 328293 average: 160.259
new min: 1.28937
new max: 10000
bounding p, min: 2876.99 max: 2.874e+10 average: 4.30777e+08
new max: 1e+07
diagonal:  Solving for rho, Initial residual = 0, Final residual = 0, No Iterations 0
diagonal:  Solving for rhoUx, Initial residual = 0, Final residual = 0, No Iterations 0
diagonal:  Solving for rhoUy, Initial residual = 0, Final residual = 0, No Iterations 0
diagonal:  Solving for rhoE, Initial residual = 0, Final residual = 0, No Iterations 0
bounding h, min: -9.55422e+11 max: 1.24385e+10 average: -2.20513e+09
new min: 1.007
new max: 1.007e+07

    From function specieThermo<thermo>::T(scalar f, scalar T0, scalar (specieThermo<thermo>::*F)(const scalar) const, scalar (specieThermo<thermo>::*dFdT)(const scalar) const) const
    in file /opt/foam/foam-extend-4.0/src/thermophysicalModels/specie/lnInclude/specieThermoI.H at line 72
    Maximum number of iterations exceeded.  T0 = 10000 F = 8.03586e+06 dFdT = 1007

    From function specieThermo<thermo>::T(scalar f, scalar T0, scalar (specieThermo<thermo>::*F)(const scalar) const, scalar (specieThermo<thermo>::*dFdT)(const scalar) const) const
    in file /opt/foam/foam-extend-4.0/src/thermophysicalModels/specie/lnInclude/specieThermoI.H at line 72
    Maximum number of iterations exceeded.  T0 = 10000 F = 8.03586e+06 dFdT = 1007

    From function specieThermo<thermo>::T(scalar f, scalar T0, scalar (specieThermo<thermo>::*F)(const scalar) const, scalar (specieThermo<thermo>::*dFdT)(const scalar) const) const
    in file /opt/foam/foam-extend-4.0/src/thermophysicalModels/specie/lnInclude/specieThermoI.H at line 72
    Maximum number of iterations exceeded.  T0 = 7542.37 F = 5.56103e+06 dFdT = 1007

    From function specieThermo<thermo>::T(scalar f, scalar T0, scalar (specieThermo<thermo>::*F)(const scalar) const, scalar (specieThermo<thermo>::*dFdT)(const scalar) const) const
    in file /opt/foam/foam-extend-4.0/src/thermophysicalModels/specie/lnInclude/specieThermoI.H at line 72
    Maximum number of iterations exceeded.  T0 = 10000 F = 8.03586e+06 dFdT = 1007

    From function specieThermo<thermo>::T(scalar f, scalar T0, scalar (specieThermo<thermo>::*F)(const scalar) const, scalar (specieThermo<thermo>::*dFdT)(const scalar) const) const
    in file /opt/foam/foam-extend-4.0/src/thermophysicalModels/specie/lnInclude/specieThermoI.H at line 72
    Maximum number of iterations exceeded.  T0 = 7542.37 F = 5.56103e+06 dFdT = 1007

    From function specieThermo<thermo>::T(scalar f, scalar T0, scalar (specieThermo<thermo>::*F)(const scalar) const, scalar (specieThermo<thermo>::*dFdT)(const scalar) const) const
    in file /opt/foam/foam-extend-4.0/src/thermophysicalModels/specie/lnInclude/specieThermoI.H at line 72
    Maximum number of iterations exceeded.  T0 = 5711.91 F = 3.71775e+06 dFdT = 1007

    From function specieThermo<thermo>::T(scalar f, scalar T0, scalar (specieThermo<thermo>::*F)(const scalar) const, scalar (specieThermo<thermo>::*dFdT)(const scalar) const) const
    in file /opt/foam/foam-extend-4.0/src/thermophysicalModels/specie/lnInclude/specieThermoI.H at line 72
    Maximum number of iterations exceeded.  T0 = 10000 F = 8.03586e+06 dFdT = 1007

    From function specieThermo<thermo>::T(scalar f, scalar T0, scalar (specieThermo<thermo>::*F)(const scalar) const, scalar (specieThermo<thermo>::*dFdT)(const scalar) const) const
    in file /opt/foam/foam-extend-4.0/src/thermophysicalModels/specie/lnInclude/specieThermoI.H at line 72
    Maximum number of iterations exceeded.  T0 = 10000 F = 8.03586e+06 dFdT = 1007

    From function specieThermo<thermo>::T(scalar f, scalar T0, scalar (specieThermo<thermo>::*F)(const scalar) const, scalar (specieThermo<thermo>::*dFdT)(const scalar) const) const
    in file /opt/foam/foam-extend-4.0/src/thermophysicalModels/specie/lnInclude/specieThermoI.H at line 72
    Maximum number of iterations exceeded.  T0 = 7542.37 F = 5.56103e+06 dFdT = 1007

    From function specieThermo<thermo>::T(scalar f, scalar T0, scalar (specieThermo<thermo>::*F)(const scalar) const, scalar (specieThermo<thermo>::*dFdT)(const scalar) const) const
    in file /opt/foam/foam-extend-4.0/src/thermophysicalModels/specie/lnInclude/specieThermoI.H at line 72
    Maximum number of iterations exceeded.  T0 = 10000 F = 8.03586e+06 dFdT = 1007

    From function specieThermo<thermo>::T(scalar f, scalar T0, scalar (specieThermo<thermo>::*F)(const scalar) const, scalar (specieThermo<thermo>::*dFdT)(const scalar) const) const
    in file /opt/foam/foam-extend-4.0/src/thermophysicalModels/specie/lnInclude/specieThermoI.H at line 72
    Maximum number of iterations exceeded.  T0 = 7542.37 F = 5.56103e+06 dFdT = 1007

    From function specieThermo<thermo>::T(scalar f, scalar T0, scalar (specieThermo<thermo>::*F)(const scalar) const, scalar (specieThermo<thermo>::*dFdT)(const scalar) const) const
    in file /opt/foam/foam-extend-4.0/src/thermophysicalModels/specie/lnInclude/specieThermoI.H at line 72
    Maximum number of iterations exceeded.  T0 = 5711.91 F = 3.71775e+06 dFdT = 1007

    From function specieThermo<thermo>::T(scalar f, scalar T0, scalar (specieThermo<thermo>::*F)(const scalar) const, scalar (specieThermo<thermo>::*dFdT)(const scalar) const) const
    in file /opt/foam/foam-extend-4.0/src/thermophysicalModels/specie/lnInclude/specieThermoI.H at line 72
    Maximum number of iterations exceeded.  T0 = 10000 F = 8.03586e+06 dFdT = 1007

    From function specieThermo<thermo>::T(scalar f, scalar T0, scalar (specieThermo<thermo>::*F)(const scalar) const, scalar (specieThermo<thermo>::*dFdT)(const scalar) const) const
    in file /opt/foam/foam-extend-4.0/src/thermophysicalModels/specie/lnInclude/specieThermoI.H at line 72
    Maximum number of iterations exceeded.  T0 = 10000 F = 8.03586e+06 dFdT = 1007

    From function specieThermo<thermo>::T(scalar f, scalar T0, scalar (specieThermo<thermo>::*F)(const scalar) const, scalar (specieThermo<thermo>::*dFdT)(const scalar) const) const
    in file /opt/foam/foam-extend-4.0/src/thermophysicalModels/specie/lnInclude/specieThermoI.H at line 72
    Maximum number of iterations exceeded.  T0 = 7542.37 F = 5.56103e+06 dFdT = 1007

    From function specieThermo<thermo>::T(scalar f, scalar T0, scalar (specieThermo<thermo>::*F)(const scalar) const, scalar (specieThermo<thermo>::*dFdT)(const scalar) const) const
    in file /opt/foam/foam-extend-4.0/src/thermophysicalModels/specie/lnInclude/specieThermoI.H at line 72
    Maximum number of iterations exceeded.  T0 = 10000 F = 8.03586e+06 dFdT = 1007

    From function specieThermo<thermo>::T(scalar f, scalar T0, scalar (specieThermo<thermo>::*F)(const scalar) const, scalar (specieThermo<thermo>::*dFdT)(const scalar) const) const
    in file /opt/foam/foam-extend-4.0/src/thermophysicalModels/specie/lnInclude/specieThermoI.H at line 72
    Maximum number of iterations exceeded.  T0 = 7542.37 F = 5.56103e+06 dFdT = 1007

    From function specieThermo<thermo>::T(scalar f, scalar T0, scalar (specieThermo<thermo>::*F)(const scalar) const, scalar (specieThermo<thermo>::*dFdT)(const scalar) const) const
    in file /opt/foam/foam-extend-4.0/src/thermophysicalModels/specie/lnInclude/specieThermoI.H at line 72
    Maximum number of iterations exceeded.  T0 = 5711.91 F = 3.71775e+06 dFdT = 1007
bounding rho, min: -8.3512e+06 max: 3.00424e+06 average: 160.258
new min: 0.001
new max: 10000
bounding p, min: 0.000287699 max: 2.87699e+10 average: 3.16272e+08
new min: 2169.94
new max: 1e+07
diagonal:  Solving for rho, Initial residual = 0, Final residual = 0, No Iterations 0
diagonal:  Solving for rhoUx, Initial residual = 0, Final residual = 0, No Iterations 0
diagonal:  Solving for rhoUy, Initial residual = 0, Final residual = 0, No Iterations 0
diagonal:  Solving for rhoE, Initial residual = 0, Final residual = 0, No Iterations 0
bounding h, min: -6.13467e+12 max: 7.46338e+09 average: -2.07462e+10
new min: 1.007
new max: 1.007e+07

    From function specieThermo<thermo>::T(scalar f, scalar T0, scalar (specieThermo<thermo>::*F)(const scalar) const, scalar (specieThermo<thermo>::*dFdT)(const scalar) const) const
    in file /opt/foam/foam-extend-4.0/src/thermophysicalModels/specie/lnInclude/specieThermoI.H at line 72
    Maximum number of iterations exceeded.  T0 = 10000 F = 8.03586e+06 dFdT = 1007

    From function specieThermo<thermo>::T(scalar f, scalar T0, scalar (specieThermo<thermo>::*F)(const scalar) const, scalar (specieThermo<thermo>::*dFdT)(const scalar) const) const
    in file /opt/foam/foam-extend-4.0/src/thermophysicalModels/specie/lnInclude/specieThermoI.H at line 72
    Maximum number of iterations exceeded.  T0 = 10000 F = 8.03586e+06 dFdT = 1007

    From function specieThermo<thermo>::T(scalar f, scalar T0, scalar (specieThermo<thermo>::*F)(const scalar) const, scalar (specieThermo<thermo>::*dFdT)(const scalar) const) const
    in file /opt/foam/foam-extend-4.0/src/thermophysicalModels/specie/lnInclude/specieThermoI.H at line 72
    Maximum number of iterations exceeded.  T0 = 10000 F = 8.03586e+06 dFdT = 1007

    From function specieThermo<thermo>::T(scalar f, scalar T0, scalar (specieThermo<thermo>::*F)(const scalar) const, scalar (specieThermo<thermo>::*dFdT)(const scalar) const) const
    in file /opt/foam/foam-extend-4.0/src/thermophysicalModels/specie/lnInclude/specieThermoI.H at line 72
    Maximum number of iterations exceeded.  T0 = 10000 F = 8.03586e+06 dFdT = 1007

    From function specieThermo<thermo>::T(scalar f, scalar T0, scalar (specieThermo<thermo>::*F)(const scalar) const, scalar (specieThermo<thermo>::*dFdT)(const scalar) const) const
    in file /opt/foam/foam-extend-4.0/src/thermophysicalModels/specie/lnInclude/specieThermoI.H at line 72
    Maximum number of iterations exceeded.  T0 = 7542.37 F = 5.56103e+06 dFdT = 1007

    From function specieThermo<thermo>::T(scalar f, scalar T0, scalar (specieThermo<thermo>::*F)(const scalar) const, scalar (specieThermo<thermo>::*dFdT)(const scalar) const) const
    in file /opt/foam/foam-extend-4.0/src/thermophysicalModels/specie/lnInclude/specieThermoI.H at line 72
    Maximum number of iterations exceeded.  T0 = 7548.1 F = 5.56679e+06 dFdT = 1007

    From function specieThermo<thermo>::T(scalar f, scalar T0, scalar (specieThermo<thermo>::*F)(const scalar) const, scalar (specieThermo<thermo>::*dFdT)(const scalar) const) const
    in file /opt/foam/foam-extend-4.0/src/thermophysicalModels/specie/lnInclude/specieThermoI.H at line 72
    Maximum number of iterations exceeded.  T0 = 10000 F = 8.03586e+06 dFdT = 1007

    From function specieThermo<thermo>::T(scalar f, scalar T0, scalar (specieThermo<thermo>::*F)(const scalar) const, scalar (specieThermo<thermo>::*dFdT)(const scalar) const) const
    in file /opt/foam/foam-extend-4.0/src/thermophysicalModels/specie/lnInclude/specieThermoI.H at line 72
    Maximum number of iterations exceeded.  T0 = 10000 F = 8.03586e+06 dFdT = 1007

    From function specieThermo<thermo>::T(scalar f, scalar T0, scalar (specieThermo<thermo>::*F)(const scalar) const, scalar (specieThermo<thermo>::*dFdT)(const scalar) const) const
    in file /opt/foam/foam-extend-4.0/src/thermophysicalModels/specie/lnInclude/specieThermoI.H at line 72
    Maximum number of iterations exceeded.  T0 = 10000 F = 8.03586e+06 dFdT = 1007

    From function specieThermo<thermo>::T(scalar f, scalar T0, scalar (specieThermo<thermo>::*F)(const scalar) const, scalar (specieThermo<thermo>::*dFdT)(const scalar) const) const
    in file /opt/foam/foam-extend-4.0/src/thermophysicalModels/specie/lnInclude/specieThermoI.H at line 72
    Maximum number of iterations exceeded.  T0 = 10000 F = 8.03586e+06 dFdT = 1007

    From function specieThermo<thermo>::T(scalar f, scalar T0, scalar (specieThermo<thermo>::*F)(const scalar) const, scalar (specieThermo<thermo>::*dFdT)(const scalar) const) const
    in file /opt/foam/foam-extend-4.0/src/thermophysicalModels/specie/lnInclude/specieThermoI.H at line 72
    Maximum number of iterations exceeded.  T0 = 7542.37 F = 5.56103e+06 dFdT = 1007

    From function specieThermo<thermo>::T(scalar f, scalar T0, scalar (specieThermo<thermo>::*F)(const scalar) const, scalar (specieThermo<thermo>::*dFdT)(const scalar) const) const
    in file /opt/foam/foam-extend-4.0/src/thermophysicalModels/specie/lnInclude/specieThermoI.H at line 72
    Maximum number of iterations exceeded.  T0 = 7548.1 F = 5.56679e+06 dFdT = 1007

    From function specieThermo<thermo>::T(scalar f, scalar T0, scalar (specieThermo<thermo>::*F)(const scalar) const, scalar (specieThermo<thermo>::*dFdT)(const scalar) const) const
    in file /opt/foam/foam-extend-4.0/src/thermophysicalModels/specie/lnInclude/specieThermoI.H at line 72
    Maximum number of iterations exceeded.  T0 = 10000 F = 8.03586e+06 dFdT = 1007

    From function specieThermo<thermo>::T(scalar f, scalar T0, scalar (specieThermo<thermo>::*F)(const scalar) const, scalar (specieThermo<thermo>::*dFdT)(const scalar) const) const
    in file /opt/foam/foam-extend-4.0/src/thermophysicalModels/specie/lnInclude/specieThermoI.H at line 72
    Maximum number of iterations exceeded.  T0 = 10000 F = 8.03586e+06 dFdT = 1007

    From function specieThermo<thermo>::T(scalar f, scalar T0, scalar (specieThermo<thermo>::*F)(const scalar) const, scalar (specieThermo<thermo>::*dFdT)(const scalar) const) const
    in file /opt/foam/foam-extend-4.0/src/thermophysicalModels/specie/lnInclude/specieThermoI.H at line 72
    Maximum number of iterations exceeded.  T0 = 10000 F = 8.03586e+06 dFdT = 1007

    From function specieThermo<thermo>::T(scalar f, scalar T0, scalar (specieThermo<thermo>::*F)(const scalar) const, scalar (specieThermo<thermo>::*dFdT)(const scalar) const) const
    in file /opt/foam/foam-extend-4.0/src/thermophysicalModels/specie/lnInclude/specieThermoI.H at line 72
    Maximum number of iterations exceeded.  T0 = 10000 F = 8.03586e+06 dFdT = 1007

    From function specieThermo<thermo>::T(scalar f, scalar T0, scalar (specieThermo<thermo>::*F)(const scalar) const, scalar (specieThermo<thermo>::*dFdT)(const scalar) const) const
    in file /opt/foam/foam-extend-4.0/src/thermophysicalModels/specie/lnInclude/specieThermoI.H at line 72
    Maximum number of iterations exceeded.  T0 = 7542.37 F = 5.56103e+06 dFdT = 1007

    From function specieThermo<thermo>::T(scalar f, scalar T0, scalar (specieThermo<thermo>::*F)(const scalar) const, scalar (specieThermo<thermo>::*dFdT)(const scalar) const) const
    in file /opt/foam/foam-extend-4.0/src/thermophysicalModels/specie/lnInclude/specieThermoI.H at line 72
    Maximum number of iterations exceeded.  T0 = 7548.1 F = 5.56679e+06 dFdT = 1007
bounding rho, min: -7.49859e+10 max: 5.61029e+10 average: 154.65
new min: 1.28937
new max: 10000
bounding p, min: 1795.3 max: 2.87699e+10 average: 3.73597e+08
new max: 1e+07
diagonal:  Solving for rho, Initial residual = 0, Final residual = 0, No Iterations 0
diagonal:  Solving for rhoUx, Initial residual = 0, Final residual = 0, No Iterations 0
diagonal:  Solving for rhoUy, Initial residual = 0, Final residual = 0, No Iterations 0
diagonal:  Solving for rhoE, Initial residual = 0, Final residual = 0, No Iterations 0
bounding h, min: -1.61497e+13 max: 3.54284e+10 average: -4.8752e+10
new min: 1.007
new max: 1.007e+07

    From function specieThermo<thermo>::T(scalar f, scalar T0, scalar (specieThermo<thermo>::*F)(const scalar) const, scalar (specieThermo<thermo>::*dFdT)(const scalar) const) const
    in file /opt/foam/foam-extend-4.0/src/thermophysicalModels/specie/lnInclude/specieThermoI.H at line 72
    Maximum number of iterations exceeded.  T0 = 10000 F = 8.03586e+06 dFdT = 1007

    From function specieThermo<thermo>::T(scalar f, scalar T0, scalar (specieThermo<thermo>::*F)(const scalar) const, scalar (specieThermo<thermo>::*dFdT)(const scalar) const) const
    in file /opt/foam/foam-extend-4.0/src/thermophysicalModels/specie/lnInclude/specieThermoI.H at line 72
    Maximum number of iterations exceeded.  T0 = 10000 F = 8.03586e+06 dFdT = 1007

    From function specieThermo<thermo>::T(scalar f, scalar T0, scalar (specieThermo<thermo>::*F)(const scalar) const, scalar (specieThermo<thermo>::*dFdT)(const scalar) const) const
    in file /opt/foam/foam-extend-4.0/src/thermophysicalModels/specie/lnInclude/specieThermoI.H at line 72
    Maximum number of iterations exceeded.  T0 = 10000 F = 8.03586e+06 dFdT = 1007

    From function specieThermo<thermo>::T(scalar f, scalar T0, scalar (specieThermo<thermo>::*F)(const scalar) const, scalar (specieThermo<thermo>::*dFdT)(const scalar) const) const
    in file /opt/foam/foam-extend-4.0/src/thermophysicalModels/specie/lnInclude/specieThermoI.H at line 72
    Maximum number of iterations exceeded.  T0 = 10000 F = 8.03586e+06 dFdT = 1007

    From function specieThermo<thermo>::T(scalar f, scalar T0, scalar (specieThermo<thermo>::*F)(const scalar) const, scalar (specieThermo<thermo>::*dFdT)(const scalar) const) const
    in file /opt/foam/foam-extend-4.0/src/thermophysicalModels/specie/lnInclude/specieThermoI.H at line 72
    Maximum number of iterations exceeded.  T0 = 7542.37 F = 5.56103e+06 dFdT = 1007

    From function specieThermo<thermo>::T(scalar f, scalar T0, scalar (specieThermo<thermo>::*F)(const scalar) const, scalar (specieThermo<thermo>::*dFdT)(const scalar) const) const
    in file /opt/foam/foam-extend-4.0/src/thermophysicalModels/specie/lnInclude/specieThermoI.H at line 72
    Maximum number of iterations exceeded.  T0 = 10000 F = 8.03586e+06 dFdT = 1007

    From function specieThermo<thermo>::T(scalar f, scalar T0, scalar (specieThermo<thermo>::*F)(const scalar) const, scalar (specieThermo<thermo>::*dFdT)(const scalar) const) const
    in file /opt/foam/foam-extend-4.0/src/thermophysicalModels/specie/lnInclude/specieThermoI.H at line 72
    Maximum number of iterations exceeded.  T0 = 10000 F = 8.03586e+06 dFdT = 1007

    From function specieThermo<thermo>::T(scalar f, scalar T0, scalar (specieThermo<thermo>::*F)(const scalar) const, scalar (specieThermo<thermo>::*dFdT)(const scalar) const) const
    in file /opt/foam/foam-extend-4.0/src/thermophysicalModels/specie/lnInclude/specieThermoI.H at line 72
    Maximum number of iterations exceeded.  T0 = 10000 F = 8.03586e+06 dFdT = 1007

    From function specieThermo<thermo>::T(scalar f, scalar T0, scalar (specieThermo<thermo>::*F)(const scalar) const, scalar (specieThermo<thermo>::*dFdT)(const scalar) const) const
    in file /opt/foam/foam-extend-4.0/src/thermophysicalModels/specie/lnInclude/specieThermoI.H at line 72
    Maximum number of iterations exceeded.  T0 = 10000 F = 8.03586e+06 dFdT = 1007

    From function specieThermo<thermo>::T(scalar f, scalar T0, scalar (specieThermo<thermo>::*F)(const scalar) const, scalar (specieThermo<thermo>::*dFdT)(const scalar) const) const
    in file /opt/foam/foam-extend-4.0/src/thermophysicalModels/specie/lnInclude/specieThermoI.H at line 72
    Maximum number of iterations exceeded.  T0 = 7542.37 F = 5.56103e+06 dFdT = 1007

    From function specieThermo<thermo>::T(scalar f, scalar T0, scalar (specieThermo<thermo>::*F)(const scalar) const, scalar (specieThermo<thermo>::*dFdT)(const scalar) const) const
    in file /opt/foam/foam-extend-4.0/src/thermophysicalModels/specie/lnInclude/specieThermoI.H at line 72
    Maximum number of iterations exceeded.  T0 = 10000 F = 8.03586e+06 dFdT = 1007

    From function specieThermo<thermo>::T(scalar f, scalar T0, scalar (specieThermo<thermo>::*F)(const scalar) const, scalar (specieThermo<thermo>::*dFdT)(const scalar) const) const
    in file /opt/foam/foam-extend-4.0/src/thermophysicalModels/specie/lnInclude/specieThermoI.H at line 72
    Maximum number of iterations exceeded.  T0 = 10000 F = 8.03586e+06 dFdT = 1007

[...]

    From function specieThermo<thermo>::T(scalar f, scalar T0, scalar (specieThermo<thermo>::*F)(const scalar) const, scalar (specieThermo<thermo>::*dFdT)(const scalar) const) const
    in file /opt/foam/foam-extend-4.0/src/thermophysicalModels/specie/lnInclude/specieThermoI.H at line 72
    Maximum number of iterations exceeded.  T0 = 7542.37 F = 5.56103e+06 dFdT = 1007

    From function specieThermo<thermo>::T(scalar f, scalar T0, scalar (specieThermo<thermo>::*F)(const scalar) const, scalar (specieThermo<thermo>::*dFdT)(const scalar) const) const
    in file /opt/foam/foam-extend-4.0/src/thermophysicalModels/specie/lnInclude/specieThermoI.H at line 72
    Maximum number of iterations exceeded.  T0 = 10000 F = 8.03586e+06 dFdT = 1007

    From function specieThermo<thermo>::T(scalar f, scalar T0, scalar (specieThermo<thermo>::*F)(const scalar) const, scalar (specieThermo<thermo>::*dFdT)(const scalar) const) const
    in file /opt/foam/foam-extend-4.0/src/thermophysicalModels/specie/lnInclude/specieThermoI.H at line 72
    Maximum number of iterations exceeded.  T0 = 7144.65 F = 5.16053e+06 dFdT = 1007

    From function specieThermo<thermo>::T(scalar f, scalar T0, scalar (specieThermo<thermo>::*F)(const scalar) const, scalar (specieThermo<thermo>::*dFdT)(const scalar) const) const
    in file /opt/foam/foam-extend-4.0/src/thermophysicalModels/specie/lnInclude/specieThermoI.H at line 72
    Maximum number of iterations exceeded.  T0 = 7542.37 F = 5.56103e+06 dFdT = 1007

    From function specieThermo<thermo>::T(scalar f, scalar T0, scalar (specieThermo<thermo>::*F)(const scalar) const, scalar (specieThermo<thermo>::*dFdT)(const scalar) const) const
    in file /opt/foam/foam-extend-4.0/src/thermophysicalModels/specie/lnInclude/specieThermoI.H at line 72
    Maximum number of iterations exceeded.  T0 = 10000 F = 8.03586e+06 dFdT = 1007

    From function specieThermo<thermo>::T(scalar f, scalar T0, scalar (specieThermo<thermo>::*F)(const scalar) const, scalar (specieThermo<thermo>::*dFdT)(const scalar) const) const
    in file /opt/foam/foam-extend-4.0/src/thermophysicalModels/specie/lnInclude/specieThermoI.H at line 72
    Maximum number of iterations exceeded.  T0 = 10000 F = 8.03586e+06 dFdT = 1007

    From function specieThermo<thermo>::T(scalar f, scalar T0, scalar (specieThermo<thermo>::*F)(const scalar) const, scalar (specieThermo<thermo>::*dFdT)(const scalar) const) const
    in file /opt/foam/foam-extend-4.0/src/thermophysicalModels/specie/lnInclude/specieThermoI.H at line 72
    Maximum number of iterations exceeded.  T0 = 10000 F = 8.03586e+06 dFdT = 1007

    From function specieThermo<thermo>::T(scalar f, scalar T0, scalar (specieThermo<thermo>::*F)(const scalar) const, scalar (specieThermo<thermo>::*dFdT)(const scalar) const) const
    in file /opt/foam/foam-extend-4.0/src/thermophysicalModels/specie/lnInclude/specieThermoI.H at line 72
    Maximum number of iterations exceeded.  T0 = 10000 F = 8.03586e+06 dFdT = 1007

    From function specieThermo<thermo>::T(scalar f, scalar T0, scalar (specieThermo<thermo>::*F)(const scalar) const, scalar (specieThermo<thermo>::*dFdT)(const scalar) const) const
    in file /opt/foam/foam-extend-4.0/src/thermophysicalModels/specie/lnInclude/specieThermoI.H at line 72
    Maximum number of iterations exceeded.  T0 = 10000 F = 8.03586e+06 dFdT = 1007

    From function specieThermo<thermo>::T(scalar f, scalar T0, scalar (specieThermo<thermo>::*F)(const scalar) const, scalar (specieThermo<thermo>::*dFdT)(const scalar) const) const
    in file /opt/foam/foam-extend-4.0/src/thermophysicalModels/specie/lnInclude/specieThermoI.H at line 72
    Maximum number of iterations exceeded.  T0 = 10000 F = 8.03586e+06 dFdT = 1007

    From function specieThermo<thermo>::T(scalar f, scalar T0, scalar (specieThermo<thermo>::*F)(const scalar) const, scalar (specieThermo<thermo>::*dFdT)(const scalar) const) const
    in file /opt/foam/foam-extend-4.0/src/thermophysicalModels/specie/lnInclude/specieThermoI.H at line 72
    Maximum number of iterations exceeded.  T0 = 7542.37 F = 5.56103e+06 dFdT = 1007

    From function specieThermo<thermo>::T(scalar f, scalar T0, scalar (specieThermo<thermo>::*F)(const scalar) const, scalar (specieThermo<thermo>::*dFdT)(const scalar) const) const
    in file /opt/foam/foam-extend-4.0/src/thermophysicalModels/specie/lnInclude/specieThermoI.H at line 72
    Maximum number of iterations exceeded.  T0 = 7542.37 F = 5.56103e+06 dFdT = 1007

    From function specieThermo<thermo>::T(scalar f, scalar T0, scalar (specieThermo<thermo>::*F)(const scalar) const, scalar (specieThermo<thermo>::*dFdT)(const scalar) const) const
    in file /opt/foam/foam-extend-4.0/src/thermophysicalModels/specie/lnInclude/specieThermoI.H at line 72
    Maximum number of iterations exceeded.  T0 = 10000 F = 8.03586e+06 dFdT = 1007

    From function specieThermo<thermo>::T(scalar f, scalar T0, scalar (specieThermo<thermo>::*F)(const scalar) const, scalar (specieThermo<thermo>::*dFdT)(const scalar) const) const
    in file /opt/foam/foam-extend-4.0/src/thermophysicalModels/specie/lnInclude/specieThermoI.H at line 72
    Maximum number of iterations exceeded.  T0 = 7542.37 F = 5.56103e+06 dFdT = 1007

    From function specieThermo<thermo>::T(scalar f, scalar T0, scalar (specieThermo<thermo>::*F)(const scalar) const, scalar (specieThermo<thermo>::*dFdT)(const scalar) const) const
    in file /opt/foam/foam-extend-4.0/src/thermophysicalModels/specie/lnInclude/specieThermoI.H at line 72
    Maximum number of iterations exceeded.  T0 = 7542.37 F = 5.56103e+06 dFdT = 1007

    From function specieThermo<thermo>::T(scalar f, scalar T0, scalar (specieThermo<thermo>::*F)(const scalar) const, scalar (specieThermo<thermo>::*dFdT)(const scalar) const) const
    in file /opt/foam/foam-extend-4.0/src/thermophysicalModels/specie/lnInclude/specieThermoI.H at line 72
    Maximum number of iterations exceeded.  T0 = 10000 F = 8.03586e+06 dFdT = 1007

    From function specieThermo<thermo>::T(scalar f, scalar T0, scalar (specieThermo<thermo>::*F)(const scalar) const, scalar (specieThermo<thermo>::*dFdT)(const scalar) const) const
    in file /opt/foam/foam-extend-4.0/src/thermophysicalModels/specie/lnInclude/specieThermoI.H at line 72
    Maximum number of iterations exceeded.  T0 = 7144.65 F = 5.16053e+06 dFdT = 1007

    From function specieThermo<thermo>::T(scalar f, scalar T0, scalar (specieThermo<thermo>::*F)(const scalar) const, scalar (specieThermo<thermo>::*dFdT)(const scalar) const) const
    in file /opt/foam/foam-extend-4.0/src/thermophysicalModels/specie/lnInclude/specieThermoI.H at line 72
    Maximum number of iterations exceeded.  T0 = 7542.37 F = 5.56103e+06 dFdT = 1007

    From function specieThermo<thermo>::T(scalar f, scalar T0, scalar (specieThermo<thermo>::*F)(const scalar) const, scalar (specieThermo<thermo>::*dFdT)(const scalar) const) const
    in file /opt/foam/foam-extend-4.0/src/thermophysicalModels/specie/lnInclude/specieThermoI.H at line 72
    Maximum number of iterations exceeded.  T0 = 10000 F = 8.03586e+06 dFdT = 1007

    From function specieThermo<thermo>::T(scalar f, scalar T0, scalar (specieThermo<thermo>::*F)(const scalar) const, scalar (specieThermo<thermo>::*dFdT)(const scalar) const) const
    in file /opt/foam/foam-extend-4.0/src/thermophysicalModels/specie/lnInclude/specieThermoI.H at line 72
    Maximum number of iterations exceeded.  T0 = 10000 F = 8.03586e+06 dFdT = 1007

    From function specieThermo<thermo>::T(scalar f, scalar T0, scalar (specieThermo<thermo>::*F)(const scalar) const, scalar (specieThermo<thermo>::*dFdT)(const scalar) const) const
    in file /opt/foam/foam-extend-4.0/src/thermophysicalModels/specie/lnInclude/specieThermoI.H at line 72
    Maximum number of iterations exceeded.  T0 = 10000 F = 8.03586e+06 dFdT = 1007

    From function specieThermo<thermo>::T(scalar f, scalar T0, scalar (specieThermo<thermo>::*F)(const scalar) const, scalar (specieThermo<thermo>::*dFdT)(const scalar) const) const
    in file /opt/foam/foam-extend-4.0/src/thermophysicalModels/specie/lnInclude/specieThermoI.H at line 72
    Maximum number of iterations exceeded.  T0 = 10000 F = 8.03586e+06 dFdT = 1007

    From function specieThermo<thermo>::T(scalar f, scalar T0, scalar (specieThermo<thermo>::*F)(const scalar) const, scalar (specieThermo<thermo>::*dFdT)(const scalar) const) const
    in file /opt/foam/foam-extend-4.0/src/thermophysicalModels/specie/lnInclude/specieThermoI.H at line 72
    Maximum number of iterations exceeded.  T0 = 10000 F = 8.03586e+06 dFdT = 1007

    From function specieThermo<thermo>::T(scalar f, scalar T0, scalar (specieThermo<thermo>::*F)(const scalar) const, scalar (specieThermo<thermo>::*dFdT)(const scalar) const) const
    in file /opt/foam/foam-extend-4.0/src/thermophysicalModels/specie/lnInclude/specieThermoI.H at line 72
    Maximum number of iterations exceeded.  T0 = 10000 F = 8.03586e+06 dFdT = 1007

    From function specieThermo<thermo>::T(scalar f, scalar T0, scalar (specieThermo<thermo>::*F)(const scalar) const, scalar (specieThermo<thermo>::*dFdT)(const scalar) const) const
    in file /opt/foam/foam-extend-4.0/src/thermophysicalModels/specie/lnInclude/specieThermoI.H at line 72
    Maximum number of iterations exceeded.  T0 = 7542.37 F = 5.56103e+06 dFdT = 1007

    From function specieThermo<thermo>::T(scalar f, scalar T0, scalar (specieThermo<thermo>::*F)(const scalar) const, scalar (specieThermo<thermo>::*dFdT)(const scalar) const) const
    in file /opt/foam/foam-extend-4.0/src/thermophysicalModels/specie/lnInclude/specieThermoI.H at line 72
    Maximum number of iterations exceeded.  T0 = 7542.37 F = 5.56103e+06 dFdT = 1007

    From function specieThermo<thermo>::T(scalar f, scalar T0, scalar (specieThermo<thermo>::*F)(const scalar) const, scalar (specieThermo<thermo>::*dFdT)(const scalar) const) const
    in file /opt/foam/foam-extend-4.0/src/thermophysicalModels/specie/lnInclude/specieThermoI.H at line 72
    Maximum number of iterations exceeded.  T0 = 10000 F = 8.03586e+06 dFdT = 1007

    From function specieThermo<thermo>::T(scalar f, scalar T0, scalar (specieThermo<thermo>::*F)(const scalar) const, scalar (specieThermo<thermo>::*dFdT)(const scalar) const) const
    in file /opt/foam/foam-extend-4.0/src/thermophysicalModels/specie/lnInclude/specieThermoI.H at line 72
    Maximum number of iterations exceeded.  T0 = 7542.37 F = 5.56103e+06 dFdT = 1007

    From function specieThermo<thermo>::T(scalar f, scalar T0, scalar (specieThermo<thermo>::*F)(const scalar) const, scalar (specieThermo<thermo>::*dFdT)(const scalar) const) const
    in file /opt/foam/foam-extend-4.0/src/thermophysicalModels/specie/lnInclude/specieThermoI.H at line 72
    Maximum number of iterations exceeded.  T0 = 7542.37 F = 5.56103e+06 dFdT = 1007

    From function specieThermo<thermo>::T(scalar f, scalar T0, scalar (specieThermo<thermo>::*F)(const scalar) const, scalar (specieThermo<thermo>::*dFdT)(const scalar) const) const
    in file /opt/foam/foam-extend-4.0/src/thermophysicalModels/specie/lnInclude/specieThermoI.H at line 72
    Maximum number of iterations exceeded.  T0 = 10000 F = 8.03586e+06 dFdT = 1007
bounding rho, min: -1.82762e+35 max: 1.5787e+35 average: 1.80505e+25
new min: 0.001
new max: 10000
bounding p, min: 0.000287699 max: 2.87699e+10 average: 5.391e+08
new min: 2169.94
new max: 1e+07
diagonal:  Solving for rho, Initial residual = 0, Final residual = 0, No Iterations 0
diagonal:  Solving for rhoUx, Initial residual = 0, Final residual = 0, No Iterations 0
diagonal:  Solving for rhoUy, Initial residual = 0, Final residual = 0, No Iterations 0
diagonal:  Solving for rhoE, Initial residual = 0, Final residual = 0, No Iterations 0
bounding h, min: -2.36341e+68 max: 7.93592e+65 average: -6.99653e+65
new min: 1.007
new max: 1.007e+07

    From function specieThermo<thermo>::T(scalar f, scalar T0, scalar (specieThermo<thermo>::*F)(const scalar) const, scalar (specieThermo<thermo>::*dFdT)(const scalar) const) const
    in file /opt/foam/foam-extend-4.0/src/thermophysicalModels/specie/lnInclude/specieThermoI.H at line 72
    Maximum number of iterations exceeded.  T0 = 7432.99 F = 5.45089e+06 dFdT = 1007

    From function specieThermo<thermo>::T(scalar f, scalar T0, scalar (specieThermo<thermo>::*F)(const scalar) const, scalar (specieThermo<thermo>::*dFdT)(const scalar) const) const
    in file /opt/foam/foam-extend-4.0/src/thermophysicalModels/specie/lnInclude/specieThermoI.H at line 72
    Maximum number of iterations exceeded.  T0 = 10000 F = 8.03586e+06 dFdT = 1007

    From function specieThermo<thermo>::T(scalar f, scalar T0, scalar (specieThermo<thermo>::*F)(const scalar) const, scalar (specieThermo<thermo>::*dFdT)(const scalar) const) const
    in file /opt/foam/foam-extend-4.0/src/thermophysicalModels/specie/lnInclude/specieThermoI.H at line 72
    Maximum number of iterations exceeded.  T0 = 7542.37 F = 5.56103e+06 dFdT = 1007

    From function specieThermo<thermo>::T(scalar f, scalar T0, scalar (specieThermo<thermo>::*F)(const scalar) const, scalar (specieThermo<thermo>::*dFdT)(const scalar) const) const
    in file /opt/foam/foam-extend-4.0/src/thermophysicalModels/specie/lnInclude/specieThermoI.H at line 72
    Maximum number of iterations exceeded.  T0 = 10000 F = 8.03586e+06 dFdT = 1007

    From function specieThermo<thermo>::T(scalar f, scalar T0, scalar (specieThermo<thermo>::*F)(const scalar) const, scalar (specieThermo<thermo>::*dFdT)(const scalar) const) const
    in file /opt/foam/foam-extend-4.0/src/thermophysicalModels/specie/lnInclude/specieThermoI.H at line 72
    Maximum number of iterations exceeded.  T0 = 7542.37 F = 5.56103e+06 dFdT = 1007

    From function specieThermo<thermo>::T(scalar f, scalar T0, scalar (specieThermo<thermo>::*F)(const scalar) const, scalar (specieThermo<thermo>::*dFdT)(const scalar) const) const
    in file /opt/foam/foam-extend-4.0/src/thermophysicalModels/specie/lnInclude/specieThermoI.H at line 72
    Maximum number of iterations exceeded.  T0 = 10000 F = 8.03586e+06 dFdT = 1007

    From function specieThermo<thermo>::T(scalar f, scalar T0, scalar (specieThermo<thermo>::*F)(const scalar) const, scalar (specieThermo<thermo>::*dFdT)(const scalar) const) const
    in file /opt/foam/foam-extend-4.0/src/thermophysicalModels/specie/lnInclude/specieThermoI.H at line 72
    Maximum number of iterations exceeded.  T0 = 7542.37 F = 5.56103e+06 dFdT = 1007

    From function specieThermo<thermo>::T(scalar f, scalar T0, scalar (specieThermo<thermo>::*F)(const scalar) const, scalar (specieThermo<thermo>::*dFdT)(const scalar) const) const
    in file /opt/foam/foam-extend-4.0/src/thermophysicalModels/specie/lnInclude/specieThermoI.H at line 72
    Maximum number of iterations exceeded.  T0 = 7432.99 F = 5.45089e+06 dFdT = 1007

    From function specieThermo<thermo>::T(scalar f, scalar T0, scalar (specieThermo<thermo>::*F)(const scalar) const, scalar (specieThermo<thermo>::*dFdT)(const scalar) const) const
    in file /opt/foam/foam-extend-4.0/src/thermophysicalModels/specie/lnInclude/specieThermoI.H at line 72
    Maximum number of iterations exceeded.  T0 = 10000 F = 8.03586e+06 dFdT = 1007

    From function specieThermo<thermo>::T(scalar f, scalar T0, scalar (specieThermo<thermo>::*F)(const scalar) const, scalar (specieThermo<thermo>::*dFdT)(const scalar) const) const
    in file /opt/foam/foam-extend-4.0/src/thermophysicalModels/specie/lnInclude/specieThermoI.H at line 72
    Maximum number of iterations exceeded.  T0 = 7542.37 F = 5.56103e+06 dFdT = 1007

    From function specieThermo<thermo>::T(scalar f, scalar T0, scalar (specieThermo<thermo>::*F)(const scalar) const, scalar (specieThermo<thermo>::*dFdT)(const scalar) const) const
    in file /opt/foam/foam-extend-4.0/src/thermophysicalModels/specie/lnInclude/specieThermoI.H at line 72
    Maximum number of iterations exceeded.  T0 = 10000 F = 8.03586e+06 dFdT = 1007

    From function specieThermo<thermo>::T(scalar f, scalar T0, scalar (specieThermo<thermo>::*F)(const scalar) const, scalar (specieThermo<thermo>::*dFdT)(const scalar) const) const
    in file /opt/foam/foam-extend-4.0/src/thermophysicalModels/specie/lnInclude/specieThermoI.H at line 72
    Maximum number of iterations exceeded.  T0 = 7542.37 F = 5.56103e+06 dFdT = 1007

    From function specieThermo<thermo>::T(scalar f, scalar T0, scalar (specieThermo<thermo>::*F)(const scalar) const, scalar (specieThermo<thermo>::*dFdT)(const scalar) const) const
    in file /opt/foam/foam-extend-4.0/src/thermophysicalModels/specie/lnInclude/specieThermoI.H at line 72
    Maximum number of iterations exceeded.  T0 = 10000 F = 8.03586e+06 dFdT = 1007

    From function specieThermo<thermo>::T(scalar f, scalar T0, scalar (specieThermo<thermo>::*F)(const scalar) const, scalar (specieThermo<thermo>::*dFdT)(const scalar) const) const
    in file /opt/foam/foam-extend-4.0/src/thermophysicalModels/specie/lnInclude/specieThermoI.H at line 72
    Maximum number of iterations exceeded.  T0 = 7542.37 F = 5.56103e+06 dFdT = 1007

    From function specieThermo<thermo>::T(scalar f, scalar T0, scalar (specieThermo<thermo>::*F)(const scalar) const, scalar (specieThermo<thermo>::*dFdT)(const scalar) const) const
    in file /opt/foam/foam-extend-4.0/src/thermophysicalModels/specie/lnInclude/specieThermoI.H at line 72
    Maximum number of iterations exceeded.  T0 = 7432.99 F = 5.45089e+06 dFdT = 1007

    From function specieThermo<thermo>::T(scalar f, scalar T0, scalar (specieThermo<thermo>::*F)(const scalar) const, scalar (specieThermo<thermo>::*dFdT)(const scalar) const) const
    in file /opt/foam/foam-extend-4.0/src/thermophysicalModels/specie/lnInclude/specieThermoI.H at line 72
    Maximum number of iterations exceeded.  T0 = 10000 F = 8.03586e+06 dFdT = 1007

    From function specieThermo<thermo>::T(scalar f, scalar T0, scalar (specieThermo<thermo>::*F)(const scalar) const, scalar (specieThermo<thermo>::*dFdT)(const scalar) const) const
    in file /opt/foam/foam-extend-4.0/src/thermophysicalModels/specie/lnInclude/specieThermoI.H at line 72
    Maximum number of iterations exceeded.  T0 = 7542.37 F = 5.56103e+06 dFdT = 1007

    From function specieThermo<thermo>::T(scalar f, scalar T0, scalar (specieThermo<thermo>::*F)(const scalar) const, scalar (specieThermo<thermo>::*dFdT)(const scalar) const) const
    in file /opt/foam/foam-extend-4.0/src/thermophysicalModels/specie/lnInclude/specieThermoI.H at line 72
    Maximum number of iterations exceeded.  T0 = 10000 F = 8.03586e+06 dFdT = 1007

    From function specieThermo<thermo>::T(scalar f, scalar T0, scalar (specieThermo<thermo>::*F)(const scalar) const, scalar (specieThermo<thermo>::*dFdT)(const scalar) const) const
    in file /opt/foam/foam-extend-4.0/src/thermophysicalModels/specie/lnInclude/specieThermoI.H at line 72
    Maximum number of iterations exceeded.  T0 = 7542.37 F = 5.56103e+06 dFdT = 1007

    From function specieThermo<thermo>::T(scalar f, scalar T0, scalar (specieThermo<thermo>::*F)(const scalar) const, scalar (specieThermo<thermo>::*dFdT)(const scalar) const) const
    in file /opt/foam/foam-extend-4.0/src/thermophysicalModels/specie/lnInclude/specieThermoI.H at line 72
    Maximum number of iterations exceeded.  T0 = 10000 F = 8.03586e+06 dFdT = 1007

    From function specieThermo<thermo>::T(scalar f, scalar T0, scalar (specieThermo<thermo>::*F)(const scalar) const, scalar (specieThermo<thermo>::*dFdT)(const scalar) const) const
    in file /opt/foam/foam-extend-4.0/src/thermophysicalModels/specie/lnInclude/specieThermoI.H at line 72
    Maximum number of iterations exceeded.  T0 = 7542.37 F = 5.56103e+06 dFdT = 1007
bounding rho, min: -6.51048e+35 max: 5.84584e+35 average: -7.96415e+24
new min: 0.001
new max: 10000
bounding p, min: 0.000287699 max: 2.87699e+10 average: 8.89329e+08
new min: 2169.94
new max: 1e+07
    ExecutionTime = 0.36 s


 end 
